LTspice 24.0.12 for Windows
Circuit: * C:\Users\Admin\Downloads\LM331m1(1)\LM331m1_test1.asc
Start Time: Fri Oct 25 00:48:08 2024
Warning: Multiple definitions of model "2scr375p" Type: BJT
Warning: Multiple definitions of model "bc857b" Type: BJT
Warning: Multiple definitions of model "bc847c" Type: BJT
Warning: Multiple definitions of model "bc847b" Type: BJT
solver = Normal
Maximum thread count: 4
tnom = 27
temp = 27
method = modified trap
Unknown node in .ic card: "ncl" -- ignoring
Unknown node in .ic card: "nct" -- ignoring
u4:1:dx: Emission coefficient, N=0.001, too small, limited to 0.1
Direct Newton iteration failed to find .op point.  (Use ".option noopiter" to skip.)
Starting Gmin stepping
Gmin = 10
Gmin = 1.07374
Gmin = 0.115292
Gmin = 0.0123794
Gmin = 0.00132923
Gmin = 0.000142725
Gmin = 1.5325e-05
Gmin = 1.6455e-06
Gmin = 1.76685e-07
Gmin = 1.89714e-08
vernier = 0.5
Gmin = 3.18287e-09
vernier = 0.25
vernier = 0.125
vernier = 0.0625
vernier = 0.03125
Gmin = 2.66279e-09
vernier = 0.015625
vernier = 0.0078125
vernier = 0.00390625
vernier = 0.00195312
Gmin = 2.63957e-09
vernier = 0.000976562
Gmin = 2.63249e-09
vernier = 0.00130208
vernier = 0.000651042
vernier = 0.000488281
Gmin = 2.63025e-09
Gmin = 0
Gmin stepping failed

Starting source stepping with srcstepmethod=0
Source Step = 3.0303%
Source Step = 33.3333%
Source Step = 63.6364%
Source Step = 93.9394%
Source stepping succeeded in finding the operating point.

Ignoring empty pin current: Ix(u1:1)
Ignoring empty pin current: Ix(u1:2)
Ignoring empty pin current: Ix(u2:1)
Ignoring empty pin current: Ix(u2:2)
Ignoring empty pin current: Ix(u3:1)
Ignoring empty pin current: Ix(u3:2)
Ignoring empty pin current: Ix(u5:1)
Ignoring empty pin current: Ix(u5:2)
Ignoring empty pin current: Ix(u6:1)
Ignoring empty pin current: Ix(u6:2)
Ignoring empty pin current: Ix(u7:1)
Ignoring empty pin current: Ix(u7:2)
Ignoring empty pin current: Ix(u1:1)
Ignoring empty pin current: Ix(u1:2)
Ignoring empty pin current: Ix(u2:1)
Ignoring empty pin current: Ix(u2:2)
Ignoring empty pin current: Ix(u3:1)
Ignoring empty pin current: Ix(u3:2)
Ignoring empty pin current: Ix(u5:1)
Ignoring empty pin current: Ix(u5:2)
Ignoring empty pin current: Ix(u6:1)
Ignoring empty pin current: Ix(u6:2)
Ignoring empty pin current: Ix(u7:1)
Ignoring empty pin current: Ix(u7:2)
Changing Tseed to 2e-10
Changing Tseed to 2e-12
Changing Tseed to 2e-09
Changing Tseed to 2e-13
Changing Tseed to 2e-08
Changing Tseed to 2e-14
Changing Tseed to 2e-07
Changing Tseed to 2e-15
Changing Tseed to 2e-06
Changing Tseed to 2e-16
Changing Tseed to 2e-05
Changing Tseed to 2e-17
Heightened Def Con from 0 Changing Tseed to 1e-09
Changing Tseed to 1e-11
Changing Tseed to 1e-08
Changing Tseed to 1e-12
Changing Tseed to 1e-07
Changing Tseed to 1e-13
Changing Tseed to 1e-06
Changing Tseed to 1e-14
Changing Tseed to 1e-05
Changing Tseed to 1e-15
Changing Tseed to 0.0001
Changing Tseed to 1e-16
+Changing Tseed to 1e-09
Changing Tseed to 1e-11
Changing Tseed to 1e-08
Changing Tseed to 1e-12
Changing Tseed to 1e-07
Changing Tseed to 1e-13
Changing Tseed to 1e-06
Changing Tseed to 1e-14
Changing Tseed to 1e-05
Changing Tseed to 1e-15
Changing Tseed to 0.0001
Changing Tseed to 1e-16
+Changing Tseed to 1e-09
Changing Tseed to 1e-11
Changing Tseed to 1e-08
Changing Tseed to 1e-12
Changing Tseed to 1e-07
Changing Tseed to 1e-13
Changing Tseed to 1e-06
Changing Tseed to 1e-14
Changing Tseed to 1e-05
Changing Tseed to 1e-15
Changing Tseed to 0.0001
Changing Tseed to 1e-16
+Changing Tseed to 1e-09
Changing Tseed to 1e-11
Changing Tseed to 1e-08
Changing Tseed to 1e-12
Changing Tseed to 1e-07
Changing Tseed to 1e-13
Changing Tseed to 1e-06
Changing Tseed to 1e-14
Changing Tseed to 1e-05
Changing Tseed to 1e-15
Changing Tseed to 0.0001
Changing Tseed to 1e-16
+Changing Tseed to 1e-09
Changing Tseed to 1e-11
Changing Tseed to 1e-08
Changing Tseed to 1e-12
Changing Tseed to 1e-07
Changing Tseed to 1e-13
Changing Tseed to 1e-06
Changing Tseed to 1e-14
Changing Tseed to 1e-05
Changing Tseed to 1e-15
Changing Tseed to 0.0001
Changing Tseed to 1e-16
+Changing Tseed to 1e-09
Changing Tseed to 1e-11
Changing Tseed to 1e-08
Changing Tseed to 1e-12
Changing Tseed to 1e-07
Changing Tseed to 1e-13
Changing Tseed to 1e-06
Changing Tseed to 1e-14
Changing Tseed to 1e-05
Changing Tseed to 1e-15
Changing Tseed to 0.0001
Changing Tseed to 1e-16
+Changing Tseed to 1e-09
Changing Tseed to 1e-11
Changing Tseed to 1e-08
Changing Tseed to 1e-12
Changing Tseed to 1e-07
Changing Tseed to 1e-13
Changing Tseed to 1e-06
Changing Tseed to 1e-14
Changing Tseed to 1e-05
Changing Tseed to 1e-15
Changing Tseed to 0.0001
Changing Tseed to 1e-16
+Changing Tseed to 1e-09
Changing Tseed to 1e-11
Changing Tseed to 1e-08
Changing Tseed to 1e-12
Changing Tseed to 1e-07
Changing Tseed to 1e-13
Changing Tseed to 1e-06
Changing Tseed to 1e-14
Changing Tseed to 1e-05
Changing Tseed to 1e-15
Changing Tseed to 0.0001
Changing Tseed to 1e-16
+Changing Tseed to 1e-09
Changing Tseed to 1e-11
Changing Tseed to 1e-08
Changing Tseed to 1e-12
Changing Tseed to 1e-07
Changing Tseed to 1e-13
Changing Tseed to 1e-06
Changing Tseed to 1e-14
Changing Tseed to 1e-05
Changing Tseed to 1e-15
Changing Tseed to 0.0001
Changing Tseed to 1e-16
+Changing Tseed to 1e-09
Changing Tseed to 1e-11
Changing Tseed to 1e-08
Changing Tseed to 1e-12
Changing Tseed to 1e-07
Changing Tseed to 1e-13
Changing Tseed to 1e-06
Changing Tseed to 1e-14
Changing Tseed to 1e-05
Changing Tseed to 1e-15
Changing Tseed to 0.0001
Changing Tseed to 1e-16
+Changing Tseed to 1e-09
Changing Tseed to 1e-11
Changing Tseed to 1e-08
Changing Tseed to 1e-12
Changing Tseed to 1e-07
Changing Tseed to 1e-13
Changing Tseed to 1e-06
Changing Tseed to 1e-14
Changing Tseed to 1e-05
Changing Tseed to 1e-15
Changing Tseed to 0.0001
Changing Tseed to 1e-16
+Changing Tseed to 1e-09
Changing Tseed to 1e-11
Changing Tseed to 1e-08
Changing Tseed to 1e-12
Changing Tseed to 1e-07
Changing Tseed to 1e-13
Changing Tseed to 1e-06
Changing Tseed to 1e-14
Changing Tseed to 1e-05
Changing Tseed to 1e-15
Changing Tseed to 0.0001
Changing Tseed to 1e-16
+Changing Tseed to 1e-09
Changing Tseed to 1e-11
Changing Tseed to 1e-08
Changing Tseed to 1e-12
Changing Tseed to 1e-07
Changing Tseed to 1e-13
Changing Tseed to 1e-06
Changing Tseed to 1e-14
Changing Tseed to 1e-05
Changing Tseed to 1e-15
Changing Tseed to 0.0001
Changing Tseed to 1e-16
+Changing Tseed to 1e-09
Changing Tseed to 1e-11
Changing Tseed to 1e-08
Changing Tseed to 1e-12
Changing Tseed to 1e-07
Changing Tseed to 1e-13
Changing Tseed to 1e-06
Changing Tseed to 1e-14
Changing Tseed to 1e-05
Changing Tseed to 1e-15
Changing Tseed to 0.0001
Changing Tseed to 1e-16
+Changing Tseed to 1e-09
Changing Tseed to 1e-11
Changing Tseed to 1e-08
Changing Tseed to 1e-12
Changing Tseed to 1e-07
Changing Tseed to 1e-13
Changing Tseed to 1e-06
Changing Tseed to 1e-14
Changing Tseed to 1e-05
Changing Tseed to 1e-15
Changing Tseed to 0.0001
Changing Tseed to 1e-16
+Changing Tseed to 1e-09
Changing Tseed to 1e-11
Changing Tseed to 1e-08
Changing Tseed to 1e-12
Changing Tseed to 1e-07
Changing Tseed to 1e-13
Changing Tseed to 1e-06
Changing Tseed to 1e-14
Changing Tseed to 1e-05
Changing Tseed to 1e-15
Changing Tseed to 0.0001
Changing Tseed to 1e-16
+Changing Tseed to 1e-09
Changing Tseed to 1e-11
Changing Tseed to 1e-08
Changing Tseed to 1e-12
Changing Tseed to 1e-07
Changing Tseed to 1e-13
Changing Tseed to 1e-06
Changing Tseed to 1e-14
Changing Tseed to 1e-05
Changing Tseed to 1e-15
Changing Tseed to 0.0001
Changing Tseed to 1e-16
+Changing Tseed to 1e-09
Changing Tseed to 1e-11
Changing Tseed to 1e-08
Changing Tseed to 1e-12
Changing Tseed to 1e-07
Changing Tseed to 1e-13
Changing Tseed to 1e-06
Changing Tseed to 1e-14
Changing Tseed to 1e-05
Changing Tseed to 1e-15
Changing Tseed to 0.0001
Changing Tseed to 1e-16
+Changing Tseed to 1e-09
Changing Tseed to 1e-11
Changing Tseed to 1e-08
Changing Tseed to 1e-12
Changing Tseed to 1e-07
Changing Tseed to 1e-13
Changing Tseed to 1e-06
Changing Tseed to 1e-14
Changing Tseed to 1e-05
Changing Tseed to 1e-15
Changing Tseed to 0.0001
Changing Tseed to 1e-16
+Changing Tseed to 1e-09
Changing Tseed to 1e-11
Changing Tseed to 1e-08
Changing Tseed to 1e-12
Changing Tseed to 1e-07
Changing Tseed to 1e-13
Changing Tseed to 1e-06
Changing Tseed to 1e-14
Changing Tseed to 1e-05
Changing Tseed to 1e-15
Changing Tseed to 0.0001
Changing Tseed to 1e-16
+Changing Tseed to 1e-09
Changing Tseed to 1e-11
Changing Tseed to 1e-08
Changing Tseed to 1e-12
Changing Tseed to 1e-07
Changing Tseed to 1e-13
Changing Tseed to 1e-06
Changing Tseed to 1e-14
Changing Tseed to 1e-05
Changing Tseed to 1e-15
Changing Tseed to 0.0001
Changing Tseed to 1e-16
+Changing Tseed to 1e-09
Changing Tseed to 1e-11
Changing Tseed to 1e-08
Changing Tseed to 1e-12
Changing Tseed to 1e-07
Changing Tseed to 1e-13
Changing Tseed to 1e-06
Changing Tseed to 1e-14
Changing Tseed to 1e-05
Changing Tseed to 1e-15
Changing Tseed to 0.0001
Changing Tseed to 1e-16
+Changing Tseed to 1e-09
Changing Tseed to 1e-11
Changing Tseed to 1e-08
Changing Tseed to 1e-12
Changing Tseed to 1e-07
Changing Tseed to 1e-13
Changing Tseed to 1e-06
Changing Tseed to 1e-14
Changing Tseed to 1e-05
Changing Tseed to 1e-15
Changing Tseed to 0.0001
Changing Tseed to 1e-16
+Changing Tseed to 1e-09
Changing Tseed to 1e-11
Changing Tseed to 1e-08
Changing Tseed to 1e-12
Changing Tseed to 1e-07
Changing Tseed to 1e-13
Changing Tseed to 1e-06
Changing Tseed to 1e-14
Changing Tseed to 1e-05
Changing Tseed to 1e-15
Changing Tseed to 0.0001
Changing Tseed to 1e-16
+Changing Tseed to 1e-09
Changing Tseed to 1e-11
Changing Tseed to 1e-08
Changing Tseed to 1e-12
Changing Tseed to 1e-07
Changing Tseed to 1e-13
Changing Tseed to 1e-06
Changing Tseed to 1e-14
Changing Tseed to 1e-05
Changing Tseed to 1e-15
Changing Tseed to 0.0001
Changing Tseed to 1e-16
+to 1.125e-10
Heightened Def Con from 0.000180223 +++++++++++++++++++to 0.000180223
Heightened Def Con from 0.000238635 +++++++++++++++++++++to 0.000238638
Heightened Def Con from 0.00023864 +++++++++++++++++++to 0.00023864
Heightened Def Con from 0.00023864 ++++++++++++++++++++++to 0.00023864
Heightened Def Con from 0.000238641 +++++++++++++++++++to 0.000238641
Heightened Def Con from 0.000238641 +++++++++++++++++++++to 0.000238644
Heightened Def Con from 0.000238645 to 0.000238645
Heightened Def Con from 0.000238645 ++++++++++++++++++++++to 0.000238646
Heightened Def Con from 0.000238646 +++++++++++++++++++++to 0.000238649
Heightened Def Con from 0.00023865 to 0.00023865
Heightened Def Con from 0.00023865 ++++++++++++++++++++++to 0.00023865
Heightened Def Con from 0.000238651 ++++++++++++++++++++++to 0.000238654
Heightened Def Con from 0.000238656 +++++++++++++++++++++to 0.000238656
Heightened Def Con from 0.000238656 ++++++++++++++++++++++to 0.000238659
Heightened Def Con from 0.000238661 ++++++++++++++++++++++to 0.000238664
Heightened Def Con from 0.000238666 ++++++++++++++++++++++to 0.000238669
Heightened Def Con from 0.000238671 ++++++++++++++++++++++to 0.000238674
Heightened Def Con from 0.000238675 +++++++++++++++++++++++to 0.000238675
Heightened Def Con from 0.000238676 ++++++++++++++++++++++to 0.000238679
Heightened Def Con from 0.00023868 +++++++++++++++++++++++to 0.000238683
Heightened Def Con from 0.000238685 +++++++++++++++++++++++to 0.000238688
Heightened Def Con from 0.00023869 +++++++++++++++++++++++to 0.000238693
Heightened Def Con from 0.000238695 +++++++++++++++++++++++to 0.000238698
Heightened Def Con from 0.0002387 ++++++++++++++++++++++++to 0.0002387
Heightened Def Con from 0.000238702 +++++++++++++++++++++++to 0.000238705
Heightened Def Con from 0.000238706 +++++++++++++++++++++++to 0.000238709
Heightened Def Con from 0.00023871 ++++++++++++++++++++++++to 0.000238714
Heightened Def Con from 0.000238719 ++++++++++++++++++++++++to 0.000238719
Heightened Def Con from 0.00023872 +++++++++++++++++++++++to 0.000238723
Heightened Def Con from 0.000238724 +++++++++++++++++++++++to 0.000238727
Heightened Def Con from 0.000238727 +++++++++++++++++++++++to 0.00023873
Heightened Def Con from 0.000238731 ++++++++++++++++++++++++to 0.000238735
Heightened Def Con from 0.000238738 ++++++++++++++++++++++++to 0.000238742
Heightened Def Con from 0.000238746 ++++++++++++++++++++++++to 0.00023875
Heightened Def Con from 0.000238753 ++++++++++++++++++++++++to 0.000238757
Heightened Def Con from 0.00023876 ++++++++++++++++++++++++to 0.000238764
Heightened Def Con from 0.000238766 +++++++++++++++++++++to 0.000238766
Heightened Def Con from 0.000238766 +++++++++++++++++++++++++to 0.000238767
Heightened Def Con from 0.000238768 ++++++++++++++++++++++++to 0.000238772
Heightened Def Con from 0.000238774 ++++++++++++++++++++++++to 0.000238778
Heightened Def Con from 0.00023878 ++++++++++++++++++++++++to 0.000238784
Heightened Def Con from 0.000238786 ++++++++++++++++++++++++to 0.00023879
Heightened Def Con from 0.000238791 ++++++++++++++++++++++++to 0.000238795
Heightened Def Con from 0.000238796 ++++++++++++++++++++++++to 0.0002388
Heightened Def Con from 0.000238802 ++++++++++++++++++++++++to 0.000238806
Heightened Def Con from 0.000238806 ++++++++++++++++++++++++to 0.00023881
Heightened Def Con from 0.000238811 ++++++++++++++++++++++to 0.000238811
Heightened Def Con from 0.000238811 ++++++++++++++++++++++++to 0.000238815
Heightened Def Con from 0.000238816 ++++++++++++++++++++++++to 0.00023882
Heightened Def Con from 0.00023882 ++++++++++++++++++++++++to 0.000238824
Heightened Def Con from 0.000238824 ++++++++++++++++++++++++to 0.000238828
Heightened Def Con from 0.000238829 +++++++++++++++++++++++++to 0.000238833
Heightened Def Con from 0.000238837 ++++++++++++++++++++++++to 0.000238837
Heightened Def Con from 0.000238837 +++++++++++++++++++++++++to 0.000238841
Heightened Def Con from 0.000238845 +++++++++++++++++++++++++to 0.000238849
Heightened Def Con from 0.000238853 +++++++++++++++++++++++++to 0.000238857
Heightened Def Con from 0.00023886 +++++++++++++++++++++++++to 0.000238864
Heightened Def Con from 0.000238868 +++++++++++++++++++++++++to 0.000238872
Heightened Def Con from 0.000238875 +++++++++++++++++++++++++to 0.000238879
Heightened Def Con from 0.000238882 +++++++++++++++++++++++++to 0.000238886
Heightened Def Con from 0.000238889 +++++++++++++++++++++++++to 0.000238893
Heightened Def Con from 0.000238896 +++++++++++++++++++++++++to 0.0002389
Heightened Def Con from 0.000238903 +++++++++++++++++++++++++to 0.000238907
Heightened Def Con from 0.00023891 +++++++++++++++++++++++++to 0.00023891
Heightened Def Con from 0.00023891 +++++++++++++++++++++++++to 0.000238914
Heightened Def Con from 0.000238917 +++++++++++++++++++++++++to 0.000238918
Heightened Def Con from 0.000238918 to 0.000238918
Heightened Def Con from 0.000238918 +++++++++++++++++++++++++to 0.000238922
Heightened Def Con from 0.000238924 +++++++++++++++++++++++++to 0.000238928
Heightened Def Con from 0.000238931 +++++++++++++++++++++to 0.000238931
Heightened Def Con from 0.000238931 +++++++++++++++++++++++++to 0.000238931
Heightened Def Con from 0.000238932 +++++++++++++++++++++++++to 0.000238932
Heightened Def Con from 0.000238933 +++++++++++++++++++++++++to 0.000238933
Heightened Def Con from 0.000238933 +++++++++++++++++++++++++to 0.000238937
Heightened Def Con from 0.00023894 +++++++++++++++++++++++++to 0.000238944
Heightened Def Con from 0.000238946 ++++++++++++++++++++++to 0.000238946
Heightened Def Con from 0.000238946 +++++++++++++++++++++++++to 0.00023895
Heightened Def Con from 0.000238952 +++++++++++++++++++++++++to 0.000238956
Heightened Def Con from 0.000238958 ++++++++++++++++++++++to 0.000238958
Heightened Def Con from 0.000238958 +++++++++++++++++++++++++to 0.000238962
Heightened Def Con from 0.000238965 +++++++++++++++++++++++++to 0.000238969
Heightened Def Con from 0.000238971 +++++++++++++++++++++++++to 0.000238975
Heightened Def Con from 0.000238977 +++++++++++++++++++++++++to 0.000238981
Heightened Def Con from 0.000238983 +++++++++++++++++++++++++to 0.000238987
Heightened Def Con from 0.000238989 +++++++++++++++++++++++++to 0.000238993
Heightened Def Con from 0.000238995 +++++++++++++++++++++++++to 0.000238999
Heightened Def Con from 0.000239001 +++++++++++++++++++++++++to 0.000239005
Heightened Def Con from 0.000239007 +++++++++++++++++++++++++to 0.000239011
Heightened Def Con from 0.000239013 +++++++++++++++++++++++++to 0.000239017
Heightened Def Con from 0.000239018 +++++++++++++++++++++++++to 0.000239022
Heightened Def Con from 0.000239024 +++++++++++++++++++++++++to 0.000239028
Heightened Def Con from 0.00023903 +++++++++++++++++++++++++to 0.000239034
Heightened Def Con from 0.000239036 +++++++++++++++++++++++++to 0.00023904
Heightened Def Con from 0.000239042 to 0.000239042
Heightened Def Con from 0.000239042 +++++++++++++++++++++++++to 0.000239046
Heightened Def Con from 0.000239048 +++++++++++++++++++++++++to 0.000239052
Heightened Def Con from 0.000239053 +++++++++++++++++++++++++to 0.000239057
Heightened Def Con from 0.000239059 +++++++++++++++++++++++++to 0.000239063
Heightened Def Con from 0.000239065 +++++++++++++++++++++++++to 0.000239065
Heightened Def Con from 0.000239066 +++++++++++++++++++++++++to 0.00023907
Heightened Def Con from 0.000239071 +++++++++++++++++++++++++to 0.000239075
Heightened Def Con from 0.000239077 +++++++++++++++++++++++++to 0.000239081
Heightened Def Con from 0.000239083 +++++++++++++++++++++++to 0.000239083
Heightened Def Con from 0.000239083 +++++++++++++++++++++++++to 0.000239087
Heightened Def Con from 0.000239088 +++++++++++++++++++++++++to 0.000239092
Heightened Def Con from 0.000239094 +++++++++++++++++++++++++to 0.000239098
Heightened Def Con from 0.0002391 +++++++++++++++++++++++++to 0.000239104
Heightened Def Con from 0.000239106 +++++++++++++++++++++++++to 0.00023911
Heightened Def Con from 0.000239111 +++++++++++++++++++++++++to 0.000239115
Heightened Def Con from 0.000239117 to 0.000239117
Heightened Def Con from 0.000239117 +++++++++++++++++++++++++to 0.000239121
Heightened Def Con from 0.000239123 +++++++++++++++++++++++++to 0.000239127
Heightened Def Con from 0.000239128 +++++++++++++++++++++++to 0.000239128
Heightened Def Con from 0.000239128 +++++++++++++++++++++++++to 0.000239132
Heightened Def Con from 0.000239134 +++++++++++++++++++++++++to 0.000239138
Heightened Def Con from 0.000239139 ++++++++++++++++++to 0.000239139
Heightened Def Con from 0.000239139 +++++++++++++++++++++++++to 0.00023914
Heightened Def Con from 0.00023914 +++++++++++++++++++++++++to 0.000239144
Heightened Def Con from 0.000239146 +++++++++++++++++++++++++to 0.00023915
Heightened Def Con from 0.000239151 +++++++++++++++++++++++++to 0.000239155
Heightened Def Con from 0.000239157 +++++++++++++++++++++++++to 0.000239161
Heightened Def Con from 0.000239163 +++++++++++++++++++++++++to 0.000239163
Heightened Def Con from 0.000239163 ++++++++++++++++++++++++to 0.000239163
Heightened Def Con from 0.000239163 +++++++++++++++++++++++++to 0.000239167
Heightened Def Con from 0.000239169 ++++++++++++++++++++++++to 0.000239169
Heightened Def Con from 0.000239169 +++++++++++++++++++++++++to 0.000239173
Heightened Def Con from 0.000239175 +++++++++++++++++++++++++to 0.000239179
Heightened Def Con from 0.00023918 +++++++++++++++++++++++++to 0.000239184
Heightened Def Con from 0.000239186 +++++++++++++++++++++++++to 0.000239186
Heightened Def Con from 0.000239187 +++++++++++++++++++++++++to 0.000239191
Heightened Def Con from 0.000239192 +++++++++++++++++++++++++to 0.000239196
Heightened Def Con from 0.000239198 +++++++++++++++++++++++++to 0.000239202
Heightened Def Con from 0.000239203 +++++++++++++++++++++++++to 0.000239207
Heightened Def Con from 0.000239209 +++++++++++++++++++++++++to 0.000239213
Heightened Def Con from 0.000239215 +++++++++++++++++++++++++to 0.000239219
Heightened Def Con from 0.00023922 +++++++++++++++++++++++++to 0.000239224
Heightened Def Con from 0.000239226 +++++++++++++++++++++++++to 0.00023923
Heightened Def Con from 0.000239231 +++++++++++++++++++++++to 0.000239231
Heightened Def Con from 0.000239231 +++++++++++++++++++++++++to 0.000239235
Heightened Def Con from 0.000239237 ++++++++++++++++++++++++to 0.000239237
Heightened Def Con from 0.000239237 +++++++++++++++++++++++++to 0.000239241
Heightened Def Con from 0.000239243 +++++++++++++++++++++++++to 0.000239247
Heightened Def Con from 0.000239248 +++++++++++++++++++++++++to 0.000239252
Heightened Def Con from 0.000239254 +++++++++++++++++++++++++to 0.000239258
Heightened Def Con from 0.000239259 +++++++++++++++++++++++++to 0.000239263
Heightened Def Con from 0.000239265 +++++++++++++++++++++++++to 0.000239269
Heightened Def Con from 0.000239271 ++++++++++++++++++++++++to 0.000239271
Heightened Def Con from 0.000239271 +++++++++++++++++++++++++to 0.000239275
Heightened Def Con from 0.000239276 +++++++++++++++++++++++++to 0.00023928
Heightened Def Con from 0.000239282 +++++++++++++++++++++++++to 0.000239286
Heightened Def Con from 0.000239287 ++++++++++++++++++++++to 0.000239287
Heightened Def Con from 0.000239287 +++++++++++++++++++++++++to 0.000239291
Heightened Def Con from 0.000239293 +++++++++++++++++++++++++to 0.000239293
Heightened Def Con from 0.000239294 +++++++++++++++++++++++++to 0.000239298
Heightened Def Con from 0.000239299 +++++++++++++++++++++++++to 0.000239303
Heightened Def Con from 0.000239305 to 0.000239305
Heightened Def Con from 0.000239305 +++++++++++++++++++++++++to 0.000239309
Heightened Def Con from 0.00023931 +++++++++++++++++++++++++to 0.000239314
Heightened Def Con from 0.000239316 +++++++++++++++++++++++++to 0.00023932
Heightened Def Con from 0.000239321 +++++++++++++++++++++++++to 0.000239325
Heightened Def Con from 0.000239327 +++++++++++++++++++++++++to 0.000239328
Heightened Def Con from 0.000239328 +++++++++++++++++++++++++to 0.000239332
Heightened Def Con from 0.000239333 +++++++++++++++++++++++++to 0.000239334
Heightened Def Con from 0.000239334 +++++++++++++++++++++++++to 0.000239338
Heightened Def Con from 0.00023934 +++++++++++++++++++++++++to 0.00023934
Heightened Def Con from 0.00023934 +++++++++++++++++++++++++to 0.000239341
Heightened Def Con from 0.000239341 +++++++++++++++++++++++++to 0.000239345
Heightened Def Con from 0.000239347 +++++++++++++++++++++++++to 0.000239351
Heightened Def Con from 0.000239352 +++++++++++++++++++++++++to 0.000239353
Heightened Def Con from 0.000239353 to 0.000239353
Heightened Def Con from 0.000239353 +++++++++++++++++++++++++to 0.000239357
Heightened Def Con from 0.000239358 +++++++++++++++++++++++++to 0.000239362
Heightened Def Con from 0.000239364 +++++++++++++++++++++++++to 0.000239368
Heightened Def Con from 0.00023937 +++++++++++++++++++++++++to 0.000239374
Heightened Def Con from 0.000239375 +++++++++++++++++++++++++to 0.000239379
Heightened Def Con from 0.000239381 to 0.000239381
Heightened Def Con from 0.000239381 +++++++++++++++++++++++++to 0.000239385
Heightened Def Con from 0.000239386 +++++++++++++++++++++++to 0.000239386
Heightened Def Con from 0.000239386 +++++++++++++++++++++++++to 0.00023939
Heightened Def Con from 0.000239392 +++++++++++++++++++++++++to 0.000239396
Heightened Def Con from 0.000239397 ++++++++++++++++++++++++to 0.000239397
Heightened Def Con from 0.000239397 +++++++++++++++++++++++++to 0.000239401
Heightened Def Con from 0.000239403 +++++++++++++++++++++++++to 0.000239407
Heightened Def Con from 0.000239409 +++++++++++++++++++++++++to 0.000239413
Heightened Def Con from 0.000239414 +++++++++++++++++++++++++to 0.000239418
Heightened Def Con from 0.00023942 +++++++++++++++++++++++++to 0.000239424
Heightened Def Con from 0.000239425 +++++++++++++++++++++++++to 0.000239429
Heightened Def Con from 0.000239431 +++++++++++++++++++++++++to 0.000239435
Heightened Def Con from 0.000239436 +++++++++++++++++++++++to 0.000239436
Heightened Def Con from 0.000239436 +++++++++++++++++++++++++to 0.00023944
Heightened Def Con from 0.000239442 +++++++++++++++++++++++++to 0.000239442
Heightened Def Con from 0.000239443 +++++++++++++++++++++++++to 0.000239447
Heightened Def Con from 0.000239448 ++++++++++++++++++++++++to 0.000239448
Heightened Def Con from 0.000239448 +++++++++++++++++++++++++to 0.000239452
Heightened Def Con from 0.000239454 ++++++++++++++++++++++++to 0.000239454
Heightened Def Con from 0.000239454 +++++++++++++++++++++++++to 0.000239458
Heightened Def Con from 0.000239459 +++++++++++++++++++++++++to 0.000239463
Heightened Def Con from 0.000239465 +++++++++++++++++++++++++to 0.000239469
Heightened Def Con from 0.000239471 +++++++++++++++++++++++++to 0.000239475
Heightened Def Con from 0.000239476 +++++++++++++++++++++++++to 0.00023948
Heightened Def Con from 0.000239482 +++++++++++++++++++++++++to 0.000239486
Heightened Def Con from 0.000239487 +++++++++++++++++++++++++to 0.000239491
Heightened Def Con from 0.000239493 ++++++++++++++++++++++to 0.000239493
Heightened Def Con from 0.000239493 +++++++++++++++++++++++++to 0.000239497
Heightened Def Con from 0.000239498 +++++++++++++++++++++++++to 0.000239502
Heightened Def Con from 0.000239504 +++++++++++++++++++++++++to 0.000239508
Heightened Def Con from 0.000239509 +++++++++++++++++++++++++to 0.00023951
Heightened Def Con from 0.00023951 +++++++++++++++++++++++++to 0.000239514
Heightened Def Con from 0.000239516 +++++++++++++++++++++++++to 0.00023952
Heightened Def Con from 0.000239521 +++++++++++++++++++++++++to 0.000239525
Heightened Def Con from 0.000239527 +++++++++++++++++++++++++to 0.000239531
Heightened Def Con from 0.000239532 +++++++++++++++++++++++++to 0.000239536
Heightened Def Con from 0.000239538 +++++++++++++++++++++++++to 0.000239542
Heightened Def Con from 0.000239544 +++++++++++++++++++++++++to 0.000239548
Heightened Def Con from 0.000239549 +++++++++++++++++++++++++to 0.000239553
Heightened Def Con from 0.000239555 +++++++++++++++++++++++++to 0.000239559
Heightened Def Con from 0.00023956 +++++++++++++++++++++++to 0.00023956
Heightened Def Con from 0.00023956 +++++++++++++++++++++++++to 0.000239564
Heightened Def Con from 0.000239566 +++++++++++++++++++++++++to 0.00023957
Heightened Def Con from 0.000239571 +++++++++++++++++++++++++to 0.000239575
Heightened Def Con from 0.000239577 ++++++++++++++++++++++++to 0.000239577
Heightened Def Con from 0.000239577 +++++++++++++++++++++++++to 0.000239581
Heightened Def Con from 0.000239583 ++++++++++++++++++++++++to 0.000239583
Heightened Def Con from 0.000239583 +++++++++++++++++++++++++to 0.000239587
Heightened Def Con from 0.000239588 +++++++++++++++++++++++++to 0.000239592
Heightened Def Con from 0.000239594 +++++++++++++++++++++++++to 0.000239598
Heightened Def Con from 0.000239599 +++++++++++++++++++++++++to 0.000239603
Heightened Def Con from 0.000239605 +++++++++++++++++++++++++to 0.000239609
Heightened Def Con from 0.00023961 +++++++++++++++++++++++++to 0.000239614
Heightened Def Con from 0.000239616 +++++++++++++++++++++++++to 0.00023962
Heightened Def Con from 0.000239622 +++++++++++++++++++++++++to 0.000239626
Heightened Def Con from 0.000239627 to 0.000239627
Heightened Def Con from 0.000239627 +++++++++++++++++++++++++to 0.000239631
Heightened Def Con from 0.000239633 ++++++++++++++++++++++++to 0.000239633
Heightened Def Con from 0.000239633 +++++++++++++++++++++++++to 0.000239637
Heightened Def Con from 0.000239638 +++++++++++++++++++++++++to 0.000239642
Heightened Def Con from 0.000239644 +++++++++++++++++++++++++to 0.000239644
Heightened Def Con from 0.000239644 +++++++++++++++++++++++++to 0.000239648
Heightened Def Con from 0.00023965 to 0.00023965
Heightened Def Con from 0.00023965 +++++++++++++++++++++++++to 0.000239654
Heightened Def Con from 0.000239656 +++++++++++++++++++++++to 0.000239656
Heightened Def Con from 0.000239656 +++++++++++++++++++++++++to 0.00023966
Heightened Def Con from 0.000239661 +++++++++++++++++++++++++to 0.000239662
Heightened Def Con from 0.000239662 +++++++++++++++++++++++++to 0.000239666
Heightened Def Con from 0.000239667 +++++++++++++++++++++++++to 0.000239671
Heightened Def Con from 0.000239673 +++++++++++++++++++++++++to 0.000239677
Heightened Def Con from 0.000239679 +++++++++++++++++++++++++to 0.000239683
Heightened Def Con from 0.000239684 +++++++++++++++++++++++++to 0.000239688
Heightened Def Con from 0.00023969 +++++++++++++++++++++++++to 0.000239694
Heightened Def Con from 0.000239695 +++++++++++++++++++++++++to 0.000239699
Heightened Def Con from 0.000239701 ++++++++++++++++++++++++to 0.000239701
Heightened Def Con from 0.000239701 +++++++++++++++++++++++++to 0.000239705
Heightened Def Con from 0.000239706 +++++++++++++++++++++++++to 0.00023971
Heightened Def Con from 0.000239712 +++++++++++++++++++++++++to 0.000239716
Heightened Def Con from 0.000239718 +++++++++++++++++++++to 0.000239718
Heightened Def Con from 0.000239718 +++++++++++++++++++++++++to 0.000239718
Heightened Def Con from 0.000239718 ++++++++++++++++++++++++to 0.000239718
Heightened Def Con from 0.000239718 +++++++++++++++++++++++++to 0.000239722
Heightened Def Con from 0.000239724 +++++++++++++++++++++++++to 0.000239728
Heightened Def Con from 0.000239729 +++++++++++++++++++++++++to 0.000239733
Heightened Def Con from 0.000239735 ++++++++++++++++++++++++to 0.000239735
Heightened Def Con from 0.000239735 +++++++++++++++++++++++++to 0.000239739
Heightened Def Con from 0.000239741 +++++++++++++++++++++++++to 0.000239745
Heightened Def Con from 0.000239746 ++++++++++++++++++++++++to 0.000239746
Heightened Def Con from 0.000239746 +++++++++++++++++++++++++to 0.000239747
Heightened Def Con from 0.000239747 +++++++++++++++++++++++++to 0.000239751
Heightened Def Con from 0.000239752 +++++++++++++++++++++++++to 0.000239756
Heightened Def Con from 0.000239758 ++++++++++++++++++++++++to 0.000239758
Heightened Def Con from 0.000239758 +++++++++++++++++++++++++to 0.000239762
Heightened Def Con from 0.000239764 ++++++++++++++++++++++to 0.000239764
Heightened Def Con from 0.000239764 +++++++++++++++++++++++++to 0.000239768
Heightened Def Con from 0.000239769 +++++++++++++++++++++++++to 0.000239773
Heightened Def Con from 0.000239775 +++++++++++++++++++++++++to 0.000239779
Heightened Def Con from 0.00023978 +++++++++++++++++++++++++to 0.000239781
Heightened Def Con from 0.000239781 +++++++++++++++++++++++++to 0.000239785
Heightened Def Con from 0.000239786 +++++++++++++++++++++++++to 0.00023979
Heightened Def Con from 0.000239792 +++++++++++++++++++++++++to 0.000239796
Heightened Def Con from 0.000239798 +++++++++++++++++++++++++to 0.000239802
Heightened Def Con from 0.000239803 ++++++++++++++++++++++++to 0.000239803
Heightened Def Con from 0.000239803 +++++++++++++++++++++++++to 0.000239807
Heightened Def Con from 0.000239809 +++++++++++++++++++++++++to 0.000239813
Heightened Def Con from 0.000239814 +++++++++++++++++++++++++to 0.000239818
Heightened Def Con from 0.00023982 +++++++++++++++++++++++++to 0.000239824
Heightened Def Con from 0.000239825 +++++++++++++++++++++++++to 0.000239829
Heightened Def Con from 0.000239831 +++++++++++++++++++++++++to 0.000239835
Heightened Def Con from 0.000239837 +++++++++++++++++++++++++to 0.000239841
Heightened Def Con from 0.000239842 +++++++++++++++++++++++++to 0.000239846
Heightened Def Con from 0.000239848 +++++++++++++++++++++++++to 0.000239852
Heightened Def Con from 0.000239853 +++++++++++++++++++++++++to 0.000239854
Heightened Def Con from 0.000239854 +++++++++++++++++++++++++to 0.000239858
Heightened Def Con from 0.00023986 +++++++++++++++++++++++to 0.00023986
Heightened Def Con from 0.00023986 +++++++++++++++++++++++++to 0.000239864
Heightened Def Con from 0.000239865 +++++++++++++++++++++++to 0.000239865
Heightened Def Con from 0.000239865 +++++++++++++++++++++++++to 0.000239869
Heightened Def Con from 0.000239871 ++++++++++++++++++++++++to 0.000239871
Heightened Def Con from 0.000239871 +++++++++++++++++++++++++to 0.000239875
Heightened Def Con from 0.000239876 ++++++++++++++++++++++++to 0.000239876
Heightened Def Con from 0.000239876 +++++++++++++++++++++++++to 0.00023988
Heightened Def Con from 0.000239882 +++++++++++++++++++++++++to 0.000239886
Heightened Def Con from 0.000239887 +++++++++++++++++++++++++to 0.000239891
Heightened Def Con from 0.000239893 +++++++++++++++++++++++++to 0.000239897
Heightened Def Con from 0.000239898 +++++++++++++++++++++++++to 0.000239902
Heightened Def Con from 0.000239904 +++++++++++++++++++++++to 0.000239904
Heightened Def Con from 0.000239904 +++++++++++++++++++++++++to 0.000239908
Heightened Def Con from 0.00023991 +++++++++++++++++++++++++to 0.000239914
Heightened Def Con from 0.000239915 +++++++++++++++++++++++++to 0.000239919
Heightened Def Con from 0.000239921 +++++++++++++++++++++++++to 0.000239925
Heightened Def Con from 0.000239926 +++++++++++++++++++++++++to 0.00023993
Heightened Def Con from 0.000239932 +++++++++++++++++++++++++to 0.000239936
Heightened Def Con from 0.000239937 +++++++++++++++++++++++++to 0.000239941
Heightened Def Con from 0.000239943 +++++++++++++++++++++++++to 0.000239947
Heightened Def Con from 0.000239949 +++++++++++++++++++++to 0.000239949
Heightened Def Con from 0.000239949 +++++++++++++++++++++++++to 0.000239949
Heightened Def Con from 0.000239949 +++++++++++++++++++++++++to 0.000239953
Heightened Def Con from 0.000239955 +++++++++++++++++++++++++to 0.000239959
Heightened Def Con from 0.00023996 ++++++++++++++++++++++++to 0.00023996
Heightened Def Con from 0.00023996 +++++++++++++++++++++++++to 0.000239964
Heightened Def Con from 0.000239966 +++++++++++++++++++++++++to 0.00023997
Heightened Def Con from 0.000239972 +++++++++++++++++++++++++to 0.000239976
Heightened Def Con from 0.000239977 +++++++++++++++++++++++++to 0.000239981
Heightened Def Con from 0.000239983 +++++++++++++++++++++++++to 0.000239987
Heightened Def Con from 0.000239988 +++++++++++++++++++++++++to 0.000239992
Heightened Def Con from 0.000239994 +++++++++++++++++++++++++to 0.000239998
Heightened Def Con from 0.000239999 +++++++++++++++++++++++to 0.000239999
Heightened Def Con from 0.000239999 +++++++++++++++++++++++++to 0.000240003
Heightened Def Con from 0.000240005 ++++++++++++++++++++++++to 0.000240005
Heightened Def Con from 0.000240005 +++++++++++++++++++++++++to 0.000240009
Heightened Def Con from 0.000240011 +++++++++++++++++++++++++to 0.000240015
Heightened Def Con from 0.000240016 +++++++++++++++++++++++++to 0.00024002
Heightened Def Con from 0.000240022 +++++++++++++++++++++++++to 0.000240026
Heightened Def Con from 0.000240027 +++++++++++++++++++++++++to 0.000240031
Heightened Def Con from 0.000240033 +++++++++++++++++++++++++to 0.000240037
Heightened Def Con from 0.000240038 ++++++++++++++++++++++++to 0.000240038
Heightened Def Con from 0.000240038 +++++++++++++++++++++++++to 0.000240042
Heightened Def Con from 0.000240044 +++++++++++++++++++++++++to 0.000240048
Heightened Def Con from 0.000240049 ++++++++++++++++++++++++to 0.000240049
Heightened Def Con from 0.000240049 +++++++++++++++++++++++++to 0.000240053
Heightened Def Con from 0.000240055 +++++++++++++++++++++++++to 0.000240059
Heightened Def Con from 0.000240061 +++++++++++++++++++++++++to 0.000240065
Heightened Def Con from 0.000240066 +++++++++++++++++++++++to 0.000240066
Heightened Def Con from 0.000240066 +++++++++++++++++++++++++to 0.00024007
Heightened Def Con from 0.000240072 +++++++++++++++++++++++++to 0.000240076
Heightened Def Con from 0.000240077 +++++++++++++++++++++++++to 0.000240081
Heightened Def Con from 0.000240083 ++++++++++++++++++++++to 0.000240083
Heightened Def Con from 0.000240083 +++++++++++++++++++++++++to 0.000240083
Heightened Def Con from 0.000240084 +++++++++++++++++++++++++to 0.000240088
Heightened Def Con from 0.000240089 ++++++++++++++++++++++++to 0.000240089
Heightened Def Con from 0.000240089 +++++++++++++++++++++++++to 0.000240093
Heightened Def Con from 0.000240095 +++++++++++++++++++++++++to 0.000240099
Heightened Def Con from 0.0002401 +++++++++++++++++++++++++to 0.000240104
Heightened Def Con from 0.000240106 +++++++++++++++++++++++++to 0.000240106
Heightened Def Con from 0.000240107 +++++++++++++++++++++++++to 0.000240111
Heightened Def Con from 0.000240112 +++++++++++++++++++++++++to 0.000240116
Heightened Def Con from 0.000240118 +++++++++++++++++++++++++to 0.000240122
Heightened Def Con from 0.000240123 +++++++++++++++++++++++to 0.000240123
Heightened Def Con from 0.000240123 +++++++++++++++++++++++++to 0.000240127
Heightened Def Con from 0.000240129 +++++++++++++++++++++++++to 0.000240133
Heightened Def Con from 0.000240134 +++++++++++++++++++++++++to 0.000240138
Heightened Def Con from 0.00024014 +++++++++++++++++++++++++to 0.000240144
Heightened Def Con from 0.000240145 +++++++++++++++++++++++++to 0.000240149
Heightened Def Con from 0.000240151 ++++++++++++++++++++++to 0.000240151
Heightened Def Con from 0.000240151 +++++++++++++++++++++++++to 0.000240152
Heightened Def Con from 0.000240152 +++++++++++++++++++++++++to 0.000240156
Heightened Def Con from 0.000240157 +++++++++++++++++++++++++to 0.000240161
Heightened Def Con from 0.000240163 +++++++++++++++++++++++++to 0.000240163
Heightened Def Con from 0.000240164 +++++++++++++++++++++++++to 0.000240168
Heightened Def Con from 0.000240169 +++++++++++++++++++++++++to 0.000240173
Heightened Def Con from 0.000240175 +++++++++++++++++++++++++to 0.000240179
Heightened Def Con from 0.00024018 +++++++++++++++++++++++++to 0.000240184
Heightened Def Con from 0.000240186 +++++++++++++++++++++++++to 0.00024019
Heightened Def Con from 0.000240191 +++++++++++++++++++++++++to 0.000240195
Heightened Def Con from 0.000240197 +++++++++++++++++++++++++to 0.000240201
Heightened Def Con from 0.000240203 +++++++++++++++++++++++++to 0.000240207
Heightened Def Con from 0.000240208 +++++++++++++++++++++++++to 0.000240212
Heightened Def Con from 0.000240214 +++++++++++++++++++++++++to 0.000240218
Heightened Def Con from 0.000240219 +++++++++++++++++++++++++to 0.000240223
Heightened Def Con from 0.000240225 ++++++++++++++++++++to 0.000240225
Heightened Def Con from 0.000240225 +++++++++++++++++++++++++to 0.000240225
Heightened Def Con from 0.000240226 to 0.000240226
Heightened Def Con from 0.000240226 +++++++++++++++++++++++++to 0.00024023
Heightened Def Con from 0.000240231 +++++++++++++++++++++++++to 0.000240235
Heightened Def Con from 0.000240237 +++++++++++++++++++++++to 0.000240237
Heightened Def Con from 0.000240237 +++++++++++++++++++++++++to 0.000240237
Heightened Def Con from 0.000240237 +++++++++++++++++++++++++to 0.000240241
Heightened Def Con from 0.000240243 +++++++++++++++++++++++++to 0.000240243
Heightened Def Con from 0.000240244 +++++++++++++++++++++++++to 0.000240248
Heightened Def Con from 0.000240249 +++++++++++++++++++++++++to 0.000240253
Heightened Def Con from 0.000240255 +++++++++++++++++++++++to 0.000240255
Heightened Def Con from 0.000240255 +++++++++++++++++++++++++to 0.000240259
Heightened Def Con from 0.00024026 +++++++++++++++++++++++++to 0.000240264
Heightened Def Con from 0.000240266 +++++++++++++++++++++++++to 0.00024027
Heightened Def Con from 0.000240272 +++++++++++++++++++++++to 0.000240272
Heightened Def Con from 0.000240272 +++++++++++++++++++++++++to 0.000240276
Heightened Def Con from 0.000240277 +++++++++++++++++++++++++to 0.000240281
Heightened Def Con from 0.000240283 ++++++++++++++++++++++++to 0.000240283
Heightened Def Con from 0.000240283 +++++++++++++++++++++++++to 0.000240287
Heightened Def Con from 0.000240288 +++++++++++++++++++++++++to 0.000240292
Heightened Def Con from 0.000240294 +++++++++++++++++++++++++to 0.000240298
Heightened Def Con from 0.000240299 +++++++++++++++++++++++++to 0.000240303
Heightened Def Con from 0.000240305 +++++++++++++++++++++++++to 0.000240309
Heightened Def Con from 0.00024031 ++++++++++++++++++++++++to 0.00024031
Heightened Def Con from 0.00024031 +++++++++++++++++++++++++to 0.000240314
Heightened Def Con from 0.000240316 +++++++++++++++++++++++++to 0.00024032
Heightened Def Con from 0.000240322 ++++++++++++++++++++++++to 0.000240323
Heightened Def Con from 0.000326552 +++++++++++++++++++++to 0.000326555
Heightened Def Con from 0.000326557 +++++++++++++++++++++to 0.00032656
Heightened Def Con from 0.000326561 +++++++++++++++++++++to 0.000326564
Heightened Def Con from 0.000326565 ++++++++++++++++++++to 0.000326565
Heightened Def Con from 0.000326565 ++++++++++++++++++++++to 0.000326565
Heightened Def Con from 0.000326566 ++++++++++++++++++++++to 0.000326569
Heightened Def Con from 0.000326571 ++++++++++++++++++++++to 0.000326574
Heightened Def Con from 0.000326576 ++++++++++++++++++++++to 0.000326579
Heightened Def Con from 0.000326581 ++++++++++++++++++++++to 0.000326584
Heightened Def Con from 0.000326586 ++++++++++++++++++++++to 0.000326589
Heightened Def Con from 0.00032659 +++++++++++++++++++++++to 0.00032659
Heightened Def Con from 0.000326591 +++++++++++++++++++++to 0.000326591
Heightened Def Con from 0.000326591 ++++++++++++++++++++++to 0.000326594
Heightened Def Con from 0.000326595 +++++++++++++++++++++++to 0.000326595
Heightened Def Con from 0.000326595 ++++++++++++++++++++++to 0.000326598
Heightened Def Con from 0.000326599 ++++++++++++++++++++to 0.000326599
Heightened Def Con from 0.000326599 +++++++++++++++++++++++to 0.0003266
Heightened Def Con from 0.000326601 +++++++++++++++++++++++to 0.000326601
Heightened Def Con from 0.000326601 ++++++++++++++++++++++to 0.000326604
Heightened Def Con from 0.000326604 +++++++++++++++++++++++to 0.000326605
Heightened Def Con from 0.000326605 +++++++++++++++++++++++to 0.000326606
Heightened Def Con from 0.000326607 ++++++++++++++++++++++++to 0.000326607
Heightened Def Con from 0.000326608 +++++++++++++++++++++++to 0.000326609
Heightened Def Con from 0.00032661 +++++++++++++++++++++++to 0.000326611
Heightened Def Con from 0.000326612 +++++++++++++++++++++++to 0.000326613
Heightened Def Con from 0.000326614 +++++++++++++++++++++++to 0.000326615
Heightened Def Con from 0.000326616 +++++++++++++++++++++++to 0.000326618
Heightened Def Con from 0.000326618 +++++++++++++++++++++++to 0.00032662
Heightened Def Con from 0.00032662 +++++++++++++++++++++++to 0.000326622
Heightened Def Con from 0.000326622 +++++++++++++++++++++++to 0.000326624
Heightened Def Con from 0.000326624 +++++++++++++++++++++++to 0.000326625
Heightened Def Con from 0.000326626 +++++++++++++++++++++++to 0.000326627
Heightened Def Con from 0.000326628 ++++++++++++++++++++++to 0.000326628
Heightened Def Con from 0.000326628 +++++++++++++++++++++++to 0.000326628
Heightened Def Con from 0.000697677 +++++++++++++++++++++to 0.00069768
Heightened Def Con from 0.000697681 +++++++++++++++++++++to 0.000697684
Heightened Def Con from 0.000697685 +++++++++++++++++++++to 0.000697688
Heightened Def Con from 0.000697689 ++++++++++++++++++++to 0.000697689
Heightened Def Con from 0.000697689 ++++++++++++++++++++++to 0.000697692
Heightened Def Con from 0.000697694 ++++++++++++++++++++++to 0.000697697
Heightened Def Con from 0.000697699 +++++++++++++++++++++++to 0.000697699
Heightened Def Con from 0.0006977 ++++++++++++++++++++++to 0.000697703
Heightened Def Con from 0.000697705 to 0.000697705
Heightened Def Con from 0.000697705 ++++++++++++++++++++++to 0.000697708
Heightened Def Con from 0.00069771 ++++++++++++++++++++++to 0.000697713
Heightened Def Con from 0.000697714 ++++++++++++++++++++++to 0.000697717
Heightened Def Con from 0.000697719 ++++++++++++++++++++++to 0.000697722
Heightened Def Con from 0.000697722 +++++++++++++++++++++++to 0.000697725
Heightened Def Con from 0.000697727 +++++++++++++++++++++++to 0.00069773
Heightened Def Con from 0.000697732 ++++++++++++++++++++++++to 0.000697733
Heightened Def Con from 0.000697734 +++++++++++++++++++++++to 0.000697737
Heightened Def Con from 0.000697739 +++++++++++++++++++++++to 0.000697742
Heightened Def Con from 0.000697743 ++++++++++++++++++++++++to 0.000697744
Heightened Def Con from 0.000697745 +++++++++++++++++++++++to 0.000697748
Heightened Def Con from 0.000697749 +++++++++++++++++++++++to 0.000697752
Heightened Def Con from 0.000697753 +++++++++++++++++++++++to 0.000697756
Heightened Def Con from 0.000697757 +++++++++++++++++++++++to 0.00069776
Heightened Def Con from 0.000697761 ++++++++++++++++++++++++to 0.000697762
Heightened Def Con from 0.000697763 +++++++++++++++++++++to 0.000697763
Heightened Def Con from 0.000697763 ++++++++++++++++++++++++to 0.000697763
Heightened Def Con from 0.000697764 +++++++++++++++++++++++to 0.000697767
Heightened Def Con from 0.000697768 +++++++++++++++++++++++to 0.000697771
Heightened Def Con from 0.000697771 +++++++++++++++++++++++to 0.000697774
Heightened Def Con from 0.000697774 +++++++++++++++++++++++to 0.000697774
Heightened Def Con from 0.000697774 ++++++++++++++++++++++++to 0.000697778
Heightened Def Con from 0.000697782 ++++++++++++++++++++++++to 0.000697783
Heightened Def Con from 0.000697783 ++++++++++++++++++++++++to 0.000697787
Heightened Def Con from 0.000697791 ++++++++++++++++++++++++to 0.000697795
Heightened Def Con from 0.000697798 ++++++++++++++++++++++++to 0.000697802
Heightened Def Con from 0.000697805 ++++++++++++++++++++++++to 0.000697809
Heightened Def Con from 0.000697811 ++++++++++++++++++++++++to 0.000697815
Heightened Def Con from 0.000697817 ++++++++++++++++++++++++to 0.000697821
Heightened Def Con from 0.000697823 ++++++++++++++++++++++++to 0.000697827
Heightened Def Con from 0.000697829 to 0.000697829
Heightened Def Con from 0.000697829 ++++++++++++++++++++++++to 0.000697833
Heightened Def Con from 0.000697835 ++++++++++++++++++++++++to 0.000697839
Heightened Def Con from 0.00069784 ++++++++++++++++++++++++to 0.000697844
Heightened Def Con from 0.000697846 ++++++++++++++++++++++++to 0.00069785
Heightened Def Con from 0.00069785 ++++++++++++++++++++++++to 0.000697854
Heightened Def Con from 0.000697855 +++++++++++++++++++++++++to 0.000697859
Heightened Def Con from 0.000697864 ++++++++++++++++++++++++to 0.000697868
Heightened Def Con from 0.000697868 ++++++++++++++++++++++++to 0.000697872
Heightened Def Con from 0.000697872 +++++++++++++++++++++++++to 0.000697876
Heightened Def Con from 0.000697881 +++++++++++++++++++++++++to 0.000697885
Heightened Def Con from 0.000697889 ++++++++++++++++++++++++to 0.000697889
Heightened Def Con from 0.000697889 +++++++++++++++++++++++++to 0.000697893
Heightened Def Con from 0.000697896 +++++++++++++++++++++++++to 0.0006979
Heightened Def Con from 0.000697904 +++++++++++++++++++++++++to 0.000697908
Heightened Def Con from 0.000697912 ++++++++++++++++++++++++to 0.000697912
Heightened Def Con from 0.000697912 +++++++++++++++++++++++++to 0.000697916
Heightened Def Con from 0.000697919 +++++++++++++++++++++++++to 0.000697923
Heightened Def Con from 0.000697926 ++++++++++++++++++++++++to 0.000697926
Heightened Def Con from 0.000697926 +++++++++++++++++++++++++to 0.00069793
Heightened Def Con from 0.000697933 +++++++++++++++++++++++++to 0.000697937
Heightened Def Con from 0.00069794 ++++++++++++++++++++to 0.00069794
Heightened Def Con from 0.00069794 +++++++++++++++++++++++++to 0.00069794
Heightened Def Con from 0.000697941 ++++++++++++++++++++++++to 0.000697941
Heightened Def Con from 0.000697941 +++++++++++++++++++++++++to 0.000697945
Heightened Def Con from 0.000697948 +++++++++++++++++++++++++to 0.000697952
Heightened Def Con from 0.000697954 +++++++++++++++++++++++++to 0.000697958
Heightened Def Con from 0.000697961 +++++++++++++++++++++++++to 0.000697965
Heightened Def Con from 0.000697967 +++++++++++++++++++++++++to 0.000697971
Heightened Def Con from 0.000697974 +++++++++++++++++++++++++to 0.000697978
Heightened Def Con from 0.00069798 +++++++++++++++++++++++++to 0.000697984
Heightened Def Con from 0.000697987 +++++++++++++++++++++++++to 0.000697991
Heightened Def Con from 0.000697993 +++++++++++++++++++++++++to 0.000697997
Heightened Def Con from 0.000697999 +++++++++++++++++++++++++to 0.000698
Heightened Def Con from 0.000698 +++++++++++++++++++++++++to 0.000698004
Heightened Def Con from 0.000698006 +++++++++++++++++++++++++to 0.00069801
Heightened Def Con from 0.000698012 ++++++++++++++++++++++++to 0.000698012
Heightened Def Con from 0.000698012 +++++++++++++++++++++++++to 0.000698016
Heightened Def Con from 0.000698018 +++++++++++++++++++++++++to 0.000698022
Heightened Def Con from 0.000698024 +++++++++++++++++++++++++to 0.000698028
Heightened Def Con from 0.00069803 +++++++++++++++++++++++++to 0.000698034
Heightened Def Con from 0.000698036 +++++++++++++++++++++++++to 0.000698037
Heightened Def Con from 0.000698037 +++++++++++++++++++++++++to 0.000698041
Heightened Def Con from 0.000698043 +++++++++++++++++++++++++to 0.000698044
Heightened Def Con from 0.000698044 +++++++++++++++++++++++++to 0.000698044
Heightened Def Con from 0.000698045 +++++++++++++++++++++++++to 0.000698049
Heightened Def Con from 0.000698051 +++++++++++++++++++++++++to 0.000698055
Heightened Def Con from 0.000698056 +++++++++++++++++++++++++to 0.00069806
Heightened Def Con from 0.000698062 ++++++++++++++++++++++++to 0.000698062
Heightened Def Con from 0.000698062 +++++++++++++++++++++++++to 0.000698066
Heightened Def Con from 0.000698068 +++++++++++++++++++++++++to 0.000698072
Heightened Def Con from 0.000698074 ++++++++++++++++++++++++to 0.000698074
Heightened Def Con from 0.000698074 +++++++++++++++++++++++++to 0.000698078
Heightened Def Con from 0.00069808 +++++++++++++++++++++++++to 0.000698084
Heightened Def Con from 0.000698086 +++++++++++++++++++++++++to 0.00069809
Heightened Def Con from 0.000698091 ++++++++++++++++++++++++to 0.000698091
Heightened Def Con from 0.000698091 +++++++++++++++++++++++++to 0.000698095
Heightened Def Con from 0.000698097 +++++++++++++++++++++++++to 0.000698101
Heightened Def Con from 0.000698103 to 0.000698103
Heightened Def Con from 0.000698103 +++++++++++++++++++++++++to 0.000698107
Heightened Def Con from 0.000698109 +++++++++++++++++++++++++to 0.000698113
Heightened Def Con from 0.000698114 +++++++++++++++++++++++++to 0.000698118
Heightened Def Con from 0.00069812 +++++++++++++++++++++++++to 0.000698124
Heightened Def Con from 0.000698126 +++++++++++++++++++++++++to 0.00069813
Heightened Def Con from 0.000698132 +++++++++++++++++++++++++to 0.000698136
Heightened Def Con from 0.000698137 +++++++++++++++++++++++++to 0.000698141
Heightened Def Con from 0.000698143 +++++++++++++++++++++++++to 0.000698147
Heightened Def Con from 0.000698149 +++++++++++++++++++++++++to 0.000698149
Heightened Def Con from 0.000698149 +++++++++++++++++++++++++to 0.000698153
Heightened Def Con from 0.000698155 ++++++++++++++++++++++++to 0.000698155
Heightened Def Con from 0.000698155 +++++++++++++++++++++++++to 0.000698159
Heightened Def Con from 0.000698161 +++++++++++++++++++++++++to 0.000698165
Heightened Def Con from 0.000698166 +++++++++++++++++++++++++to 0.00069817
Heightened Def Con from 0.000698172 +++++++++++++++++++++++++to 0.000698176
Heightened Def Con from 0.000698178 +++++++++++++++++++++++++to 0.000698182
Heightened Def Con from 0.000698183 +++++++++++++++++++++++++to 0.000698187
Heightened Def Con from 0.000698189 +++++++++++++++++++++++to 0.000698189
Heightened Def Con from 0.000698189 +++++++++++++++++++++++++to 0.000698193
Heightened Def Con from 0.000698195 +++++++++++++++++++++++++to 0.000698199
Heightened Def Con from 0.0006982 ++++++++++++++++++++++to 0.0006982
Heightened Def Con from 0.0006982 +++++++++++++++++++++++++to 0.000698201
Heightened Def Con from 0.000698201 +++++++++++++++++++++++++to 0.000698202
Heightened Def Con from 0.000698202 +++++++++++++++++++++++++to 0.000698206
Heightened Def Con from 0.000698207 +++++++++++++++++++++++++to 0.000698211
Heightened Def Con from 0.000698213 +++++++++++++++++++++++++to 0.000698217
Heightened Def Con from 0.000698219 +++++++++++++++++++++++++to 0.000698223
Heightened Def Con from 0.000698224 +++++++++++++++++++++++++to 0.000698228
Heightened Def Con from 0.00069823 ++++++++++++++++++++++++to 0.00069823
Heightened Def Con from 0.00069823 +++++++++++++++++++++++++to 0.000698234
Heightened Def Con from 0.000698235 ++++++++++++++++++++++++to 0.000698235
Heightened Def Con from 0.000698235 +++++++++++++++++++++++++to 0.000698239
Heightened Def Con from 0.000698241 +++++++++++++++++++++++++to 0.000698245
Heightened Def Con from 0.000698247 +++++++++++++++++++++++++to 0.000698251
Heightened Def Con from 0.000698252 +++++++++++++++++++++++++to 0.000698253
Heightened Def Con from 0.000698253 +++++++++++++++++++++++++to 0.000698257
Heightened Def Con from 0.000698259 +++++++++++++++++++++++++to 0.000698263
Heightened Def Con from 0.000698264 +++++++++++++++++++++++++to 0.000698268
Heightened Def Con from 0.00069827 +++++++++++++++++++++++++to 0.000698274
Heightened Def Con from 0.000698275 +++++++++++++++++++++++++to 0.000698276
Heightened Def Con from 0.000698276 +++++++++++++++++++++++++to 0.00069828
Heightened Def Con from 0.000698282 +++++++++++++++++++++++++to 0.000698286
Heightened Def Con from 0.000698287 +++++++++++++++++++++++++to 0.000698291
Heightened Def Con from 0.000698293 +++++++++++++++++++++++++to 0.000698297
Heightened Def Con from 0.000698298 +++++++++++++++++++++++++to 0.000698302
Heightened Def Con from 0.000698304 to 0.000698304
Heightened Def Con from 0.000698304 +++++++++++++++++++++++++to 0.000698308
Heightened Def Con from 0.00069831 +++++++++++++++++++++++++to 0.000698314
Heightened Def Con from 0.000698315 +++++++++++++++++++++++++to 0.000698319
Heightened Def Con from 0.000698321 +++++++++++++++++++++++++to 0.000698325
Heightened Def Con from 0.000698326 +++++++++++++++++++++++++to 0.00069833
Heightened Def Con from 0.000698332 +++++++++++++++++++++++++to 0.000698332
Heightened Def Con from 0.000698333 +++++++++++++++++++++++++to 0.000698337
Heightened Def Con from 0.000698338 ++++++++++++++++++++++++to 0.000698338
Heightened Def Con from 0.000698338 +++++++++++++++++++++++++to 0.000698342
Heightened Def Con from 0.000698344 ++++++++++++++++++++++++to 0.000698344
Heightened Def Con from 0.000698344 +++++++++++++++++++++++++to 0.000698348
Heightened Def Con from 0.000698349 +++++++++++++++++++++++++to 0.00069835
Heightened Def Con from 0.00069835 ++++++++++++++++++++++++to 0.00069835
Heightened Def Con from 0.00069835 +++++++++++++++++++++++++to 0.000698354
Heightened Def Con from 0.000698356 +++++++++++++++++++++++++to 0.00069836
Heightened Def Con from 0.000698361 +++++++++++++++++++++++++to 0.000698365
Heightened Def Con from 0.000698367 to 0.000698367
Heightened Def Con from 0.000698367 +++++++++++++++++++++++++to 0.000698367
Heightened Def Con from 0.000698367 +++++++++++++++++++++++++to 0.000698368
Heightened Def Con from 0.000698368 +++++++++++++++++++++++++to 0.000698372
Heightened Def Con from 0.000698374 +++++++++++++++++++++++++to 0.000698374
Heightened Def Con from 0.000698375 +++++++++++++++++++++++++to 0.000698379
Heightened Def Con from 0.00069838 ++++++++++++++++++++++++to 0.00069838
Heightened Def Con from 0.00069838 +++++++++++++++++++++++++to 0.000698384
Heightened Def Con from 0.000698386 +++++++++++++++++++++++++to 0.00069839
Heightened Def Con from 0.000698391 ++++++++++++++++++++++++to 0.000698391
Heightened Def Con from 0.000698391 +++++++++++++++++++++++++to 0.000698395
Heightened Def Con from 0.000698397 +++++++++++++++++++++to 0.000698397
Heightened Def Con from 0.000698397 +++++++++++++++++++++++++to 0.000698397
Heightened Def Con from 0.000698398 +++++++++++++++++++++++++to 0.000698402
Heightened Def Con from 0.000698403 +++++++++++++++++++++++++to 0.000698407
Heightened Def Con from 0.000698409 ++++++++++++++++++++++++to 0.000698409
Heightened Def Con from 0.000698409 +++++++++++++++++++++++++to 0.000698413
Heightened Def Con from 0.000698414 +++++++++++++++++++++++++to 0.000698418
Heightened Def Con from 0.00069842 +++++++++++++++++++++++++to 0.000698424
Heightened Def Con from 0.000698425 +++++++++++++++++++++++++to 0.000698426
Heightened Def Con from 0.000698426 +++++++++++++++++++++++++to 0.000698427
Heightened Def Con from 0.000698427 +++++++++++++++++++++++to 0.000698427
Heightened Def Con from 0.000698427 +++++++++++++++++++++++++to 0.000698431
Heightened Def Con from 0.000698432 +++++++++++++++++++++++++to 0.000698436
Heightened Def Con from 0.000698438 +++++++++++++++++++++++++to 0.000698442
Heightened Def Con from 0.000698444 +++++++++++++++++++++++++to 0.000698448
Heightened Def Con from 0.000698449 +++++++++++++++++++++++++to 0.000698453
Heightened Def Con from 0.000698455 +++++++++++++++++++++++++to 0.000698459
Heightened Def Con from 0.00069846 +++++++++++++++++++++++++to 0.000698464
Heightened Def Con from 0.000698466 +++++++++++++++++++++++++to 0.00069847
Heightened Def Con from 0.000698471 +++++++++++++++++++++++++to 0.000698475
Heightened Def Con from 0.000698477 +++++++++++++++++++++++++to 0.000698481
Heightened Def Con from 0.000698482 +++++++++++++++++++++++++to 0.000698486
Heightened Def Con from 0.000698488 +++++++++++++++++++++++to 0.000698488
Heightened Def Con from 0.000698488 +++++++++++++++++++++++++to 0.000698492
Heightened Def Con from 0.000698494 +++++++++++++++++++++++++to 0.000698498
Heightened Def Con from 0.000698499 +++++++++++++++++++++++++to 0.000698503
Heightened Def Con from 0.000698505 +++++++++++++++++++++++++to 0.000698509
Heightened Def Con from 0.00069851 +++++++++++++++++++++++++to 0.000698511
Heightened Def Con from 0.000698511 +++++++++++++++++++++++++to 0.000698515
Heightened Def Con from 0.000698517 +++++++++++++++++++++++++to 0.000698517
Heightened Def Con from 0.000698517 +++++++++++++++++++++++++to 0.000698521
Heightened Def Con from 0.000698523 +++++++++++++++++++++++++to 0.000698527
Heightened Def Con from 0.000698528 +++++++++++++++++++++++++to 0.000698529
Heightened Def Con from 0.000698529 +++++++++++++++++++++++++to 0.000698533
Heightened Def Con from 0.000698535 +++++++++++++++++++++++++to 0.000698539
Heightened Def Con from 0.00069854 +++++++++++++++++++++++++to 0.000698544
Heightened Def Con from 0.000698546 +++++++++++++++++++++++++to 0.00069855
Heightened Def Con from 0.000698551 +++++++++++++++++++++++++to 0.000698555
Heightened Def Con from 0.000698557 +++++++++++++++++++++++to 0.000698557
Heightened Def Con from 0.000698557 +++++++++++++++++++++++++to 0.000698561
Heightened Def Con from 0.000698563 ++++++++++++++++++++++++to 0.000698563
Heightened Def Con from 0.000698563 +++++++++++++++++++++++++to 0.000698567
Heightened Def Con from 0.000698568 +++++++++++++++++++++++++to 0.000698572
Heightened Def Con from 0.000698574 +++++++++++++++++++++++++to 0.000698578
Heightened Def Con from 0.000698579 +++++++++++++++++++++++to 0.000698579
Heightened Def Con from 0.000698579 +++++++++++++++++++++++++to 0.000698583
Heightened Def Con from 0.000698585 +++++++++++++++++++++++++to 0.000698585
Heightened Def Con from 0.000698586 +++++++++++++++++++++++++to 0.000698586
Heightened Def Con from 0.000698586 ++++++++++++++++++++++to 0.000698586
Heightened Def Con from 0.000698586 +++++++++++++++++++++++++to 0.00069859
Heightened Def Con from 0.000698592 ++++++++++++++++++++++++to 0.000698592
Heightened Def Con from 0.000698592 +++++++++++++++++++++++++to 0.000698596
Heightened Def Con from 0.000698597 +++++++++++++++++++++++++to 0.000698601
Heightened Def Con from 0.000698603 +++++++++++++++++++++++++to 0.000698607
Heightened Def Con from 0.000698609 +++++++++++++++++++++++++to 0.000698613
Heightened Def Con from 0.000698614 +++++++++++++++++++++++++to 0.000698618
Heightened Def Con from 0.00069862 +++++++++++++++++++++++++to 0.000698624
Heightened Def Con from 0.000698625 +++++++++++++++++++++++++to 0.000698626
Heightened Def Con from 0.000698626 +++++++++++++++++++++++++to 0.00069863
Heightened Def Con from 0.000698631 ++++++++++++++++++++++++to 0.000698631
Heightened Def Con from 0.000698631 +++++++++++++++++++++++++to 0.000698635
Heightened Def Con from 0.000698637 +++++++++++++++++++++++++to 0.000698641
Heightened Def Con from 0.000698643 +++++++++++++++++++++++++to 0.000698647
Heightened Def Con from 0.000698648 +++++++++++++++++++++++++to 0.000698652
Heightened Def Con from 0.000698654 +++++++++++++++++++++++++to 0.000698654
Heightened Def Con from 0.000698654 +++++++++++++++++++++++++to 0.000698658
Heightened Def Con from 0.00069866 +++++++++++++++++++++++++to 0.000698664
Heightened Def Con from 0.000698666 ++++++++++++++++++++++++to 0.000698666
Heightened Def Con from 0.000698666 +++++++++++++++++++++++++to 0.00069867
Heightened Def Con from 0.000698671 +++++++++++++++++++++++to 0.000698671
Heightened Def Con from 0.000698671 +++++++++++++++++++++++++to 0.000698675
Heightened Def Con from 0.000698677 +++++++++++++++++++++++to 0.000698677
Heightened Def Con from 0.000698677 +++++++++++++++++++++++++to 0.000698677
Heightened Def Con from 0.000698677 +++++++++++++++++++++++++to 0.000698681
Heightened Def Con from 0.000698683 +++++++++++++++++++++++++to 0.000698684
Heightened Def Con from 0.000698684 +++++++++++++++++++++++++to 0.000698688
Heightened Def Con from 0.000698689 +++++++++++++++++++++++++to 0.000698693
Heightened Def Con from 0.000698695 +++++++++++++++++++++++++to 0.000698699
Heightened Def Con from 0.0006987 +++++++++++++++++++++++++to 0.000698701
Heightened Def Con from 0.000698701 +++++++++++++++++++++++++to 0.000698705
Heightened Def Con from 0.000698707 ++++++++++++++++++++++++to 0.000698707
Heightened Def Con from 0.000698707 +++++++++++++++++++++++++to 0.000698711
Heightened Def Con from 0.000698712 to 0.000698712
Heightened Def Con from 0.000698712 +++++++++++++++++++++++++to 0.000698716
Heightened Def Con from 0.000698718 +++++++++++++++++++++++++to 0.000698718
Heightened Def Con from 0.000698719 +++++++++++++++++++++++++to 0.000698723
Heightened Def Con from 0.000698724 +++++++++++++++++++++++++to 0.000698725
Heightened Def Con from 0.000698725 +++++++++++++++++++++to 0.000698725
Heightened Def Con from 0.000698725 +++++++++++++++++++++++++to 0.000698725
Heightened Def Con from 0.000698726 +++++++++++++++++++++++++to 0.00069873
Heightened Def Con from 0.000698731 +++++++++++++++++++++++++to 0.000698735
Heightened Def Con from 0.000698737 +++++++++++++++++++++++++to 0.000698741
Heightened Def Con from 0.000698742 +++++++++++++++++++++++++to 0.000698746
Heightened Def Con from 0.000698748 +++++++++++++++++++++++++to 0.000698752
Heightened Def Con from 0.000698753 +++++++++++++++++++++++++to 0.000698757
Heightened Def Con from 0.000698759 +++++++++++++++++++++++++to 0.000698763
Heightened Def Con from 0.000698765 +++++++++++++++++++++++++to 0.000698765
Heightened Def Con from 0.000698765 +++++++++++++++++++++++++to 0.000698769
Heightened Def Con from 0.000698771 +++++++++++++++++++++++++to 0.000698771
Heightened Def Con from 0.000698771 +++++++++++++++++++++++++to 0.000698775
Heightened Def Con from 0.000698777 +++++++++++++++++++++++++to 0.000698781
Heightened Def Con from 0.000698783 +++++++++++++++++++++++++to 0.000698787
Heightened Def Con from 0.000698788 +++++++++++++++++++++++++to 0.000698792
Heightened Def Con from 0.000698794 +++++++++++++++++++++++++to 0.000698798
Heightened Def Con from 0.000698799 +++++++++++++++++++++++++to 0.000698803
Heightened Def Con from 0.000698805 +++++++++++++++++++++++++to 0.000698809
Heightened Def Con from 0.00069881 ++++++++++++++++++++++++to 0.00069881
Heightened Def Con from 0.00069881 +++++++++++++++++++++++++to 0.000698814
Heightened Def Con from 0.000698816 +++++++++++++++++++++++++to 0.00069882
Heightened Def Con from 0.000698822 +++++++++++++++++++++++++to 0.000698826
Heightened Def Con from 0.000698827 to 0.000698827
Heightened Def Con from 0.000698827 +++++++++++++++++++++++++to 0.000698831
Heightened Def Con from 0.000698833 +++++++++++++++++++++++++to 0.000698837
Heightened Def Con from 0.000698838 +++++++++++++++++++++++++to 0.000698842
Heightened Def Con from 0.000698844 +++++++++++++++++++++to 0.000698844
Heightened Def Con from 0.000698844 +++++++++++++++++++++++++to 0.000698848
Heightened Def Con from 0.000698849 +++++++++++++++++++++to 0.000698849
Heightened Def Con from 0.000698849 +++++++++++++++++++++++++to 0.00069885
Heightened Def Con from 0.00069885 +++++++++++++++++++++++++to 0.000698854
Heightened Def Con from 0.000698856 +++++++++++++++++++++++++to 0.00069886
Heightened Def Con from 0.000698861 +++++++++++++++++++++++++to 0.000698865
Heightened Def Con from 0.000698867 ++++++++++++++++++++++to 0.000698867
Heightened Def Con from 0.000698867 +++++++++++++++++++++++++to 0.000698867
Heightened Def Con from 0.000698868 +++++++++++++++++++++++++to 0.000698872
Heightened Def Con from 0.000698873 +++++++++++++++++++++++++to 0.000698877
Heightened Def Con from 0.000698879 +++++++++++++++++++++++++to 0.000698879
Heightened Def Con from 0.000698879 +++++++++++++++++++++++to 0.000698879
Heightened Def Con from 0.000698879 +++++++++++++++++++++++++to 0.000698883
Heightened Def Con from 0.000698885 +++++++++++++++++++++++++to 0.000698889
Heightened Def Con from 0.000698891 +++++++++++++++++++++++++to 0.000698891
Heightened Def Con from 0.000698891 +++++++++++++++++++++++++to 0.000698895
Heightened Def Con from 0.000698897 +++++++++++++++++++++++++to 0.000698897
Heightened Def Con from 0.000698898 ++++++++++++++++++++++++to 0.000698898
Heightened Def Con from 0.000698898 +++++++++++++++++++++++++to 0.000698902
Heightened Def Con from 0.000698903 ++++++++++++++++++++++to 0.000698903
Heightened Def Con from 0.000698903 +++++++++++++++++++++++++to 0.000698904
Heightened Def Con from 0.000698904 +++++++++++++++++++++++++to 0.000698908
Heightened Def Con from 0.000698909 +++++++++++++++++++++++++to 0.000698913
Heightened Def Con from 0.000698915 +++++++++++++++++++++++++to 0.000698919
Heightened Def Con from 0.00069892 +++++++++++++++++++++++++to 0.000698924
Heightened Def Con from 0.000698926 +++++++++++++++++++++++++to 0.00069893
Heightened Def Con from 0.000698932 +++++++++++++++++++++++++to 0.000698936
Heightened Def Con from 0.000698937 +++++++++++++++++++++++++to 0.000698938
Heightened Def Con from 0.000698938 +++++++++++++++++++++++++to 0.000698942
Heightened Def Con from 0.000698943 +++++++++++++++++++++++++to 0.000698947
Heightened Def Con from 0.000698949 +++++++++++++++++++++++++to 0.000698953
Heightened Def Con from 0.000698955 +++++++++++++++++++++++++to 0.000698959
Heightened Def Con from 0.00069896 +++++++++++++++++++++++++to 0.000698964
Heightened Def Con from 0.000698966 +++++++++++++++++++++++++to 0.00069897
Heightened Def Con from 0.000698971 +++++++++++++++++++++++++to 0.000698975
Heightened Def Con from 0.000698977 +++++++++++++++++++++++++to 0.000698981
Heightened Def Con from 0.000698982 +++++++++++++++++++++++++to 0.000698986
Heightened Def Con from 0.000698988 ++++++++++++++++++++++++to 0.000698988
Heightened Def Con from 0.000698988 +++++++++++++++++++++++++to 0.000698992
Heightened Def Con from 0.000698994 +++++++++++++++++++++++++to 0.000698998
Heightened Def Con from 0.000698999 +++++++++++++++++++++++++to 0.000699003
Heightened Def Con from 0.000699005 +++++++++++++++++++++++++to 0.000699009
Heightened Def Con from 0.00069901 ++++++++++++++++++++++++to 0.00069901
Heightened Def Con from 0.00069901 +++++++++++++++++++++++++to 0.000699014
Heightened Def Con from 0.000699016 ++++++++++++++++++++++++to 0.000699016
Heightened Def Con from 0.000699016 +++++++++++++++++++++++++to 0.00069902
Heightened Def Con from 0.000699021 +++++++++++++++++++++++++to 0.000699025
Heightened Def Con from 0.000699027 +++++++++++++++++++++++++to 0.000699031
Heightened Def Con from 0.000699032 ++++++++++++++++++++++++to 0.000699032
Heightened Def Con from 0.000699032 +++++++++++++++++++++++++to 0.000699036
Heightened Def Con from 0.000699038 ++++++++++++++++++++++++to 0.000699038
Heightened Def Con from 0.000699038 +++++++++++++++++++++++++to 0.000699039
Heightened Def Con from 0.000699039 to 0.000699039
Heightened Def Con from 0.000699039 +++++++++++++++++++++++++to 0.000699043
Heightened Def Con from 0.000699044 +++++++++++++++++++++++++to 0.000699048
Heightened Def Con from 0.00069905 +++++++++++++++++++++++++to 0.000699054
Heightened Def Con from 0.000699055 +++++++++++++++++++++++++to 0.000699059
Heightened Def Con from 0.000699061 +++++++++++++++++++++++++to 0.000699065
Heightened Def Con from 0.000699067 +++++++++++++++++++++++++to 0.000699067
Heightened Def Con from 0.000699067 +++++++++++++++++++++++++to 0.000699071
Heightened Def Con from 0.000699073 +++++++++++++++++++++++to 0.000699073
Heightened Def Con from 0.000699073 +++++++++++++++++++++++++to 0.000699077
Heightened Def Con from 0.000699078 +++++++++++++++++++++++++to 0.000699082
Heightened Def Con from 0.000699084 ++++++++++++++++++++++to 0.000699084
Heightened Def Con from 0.000699084 +++++++++++++++++++++++++to 0.000699088
Heightened Def Con from 0.00069909 +++++++++++++++++++++++++to 0.000699094
Heightened Def Con from 0.000699095 +++++++++++++++++++++++++to 0.000699099
Heightened Def Con from 0.000699101 +++++++++++++++++++++++++to 0.000699105
Heightened Def Con from 0.000699106 +++++++++++++++++++++++to 0.000699106
Heightened Def Con from 0.000699106 +++++++++++++++++++++++++to 0.00069911
Heightened Def Con from 0.000699112 +++++++++++++++++++++++++to 0.000699116
Heightened Def Con from 0.000699117 ++++++++++++++++++++++++to 0.000699117
Heightened Def Con from 0.000699117 +++++++++++++++++++++++++to 0.000699121
Heightened Def Con from 0.000699123 +++++++++++++++++++++++++to 0.000699127
Heightened Def Con from 0.000699129 +++++++++++++++++++++++++to 0.000699133
Heightened Def Con from 0.000699134 +++++++++++++++++++++++++to 0.000699138
Heightened Def Con from 0.00069914 +++++++++++++++++++++++++to 0.000699144
Heightened Def Con from 0.000699145 +++++++++++++++++++++++++to 0.000699149
Heightened Def Con from 0.000699151 +++++++++++++++++++++++++to 0.000699155
Heightened Def Con from 0.000699156 +++++++++++++++++++++++++to 0.00069916
Heightened Def Con from 0.000699162 +++++++++++++++++++++++++to 0.000699162
Heightened Def Con from 0.000699163 +++++++++++++++++++++++++to 0.000699167
Heightened Def Con from 0.000699168 +++++++++++++++++++++++to 0.000699168
Heightened Def Con from 0.000699168 +++++++++++++++++++++++++to 0.000699172
Heightened Def Con from 0.000699174 +++++++++++++++++++++++++to 0.000699174
Heightened Def Con from 0.000699174 ++++++++++++++++++++++++to 0.000699174
Heightened Def Con from 0.000699174 +++++++++++++++++++++++++to 0.000699178
Heightened Def Con from 0.00069918 ++++++++++++++++++++++to 0.00069918
Heightened Def Con from 0.00069918 +++++++++++++++++++++++++to 0.000699184
Heightened Def Con from 0.000699186 +++++++++++++++++++++++++to 0.00069919
Heightened Def Con from 0.000699191 +++++++++++++++++++++++++to 0.000699195
Heightened Def Con from 0.000699197 ++++++++++++++++++++++++to 0.000699197
Heightened Def Con from 0.000699197 +++++++++++++++++++++++++to 0.000699201
Heightened Def Con from 0.000699202 ++++++++++++++++++++++++to 0.000699202
Heightened Def Con from 0.000699202 +++++++++++++++++++++++++to 0.000699206
Heightened Def Con from 0.000699208 ++++++++++++++++++++++to 0.000699208
Heightened Def Con from 0.000699208 +++++++++++++++++++++++++to 0.000699208
Heightened Def Con from 0.000699209 +++++++++++++++++++++++++to 0.000699213
Heightened Def Con from 0.000699214 +++++++++++++++++++++++to 0.000699214
Heightened Def Con from 0.000699214 +++++++++++++++++++++++++to 0.000699218
Heightened Def Con from 0.00069922 +++++++++++++++++++++++++to 0.000699224
Heightened Def Con from 0.000699225 +++++++++++++++++++++++to 0.000699225
Heightened Def Con from 0.000699225 +++++++++++++++++++++++++to 0.000699229
Heightened Def Con from 0.000699231 +++++++++++++++++++++++++to 0.000699235
Heightened Def Con from 0.000699236 +++++++++++++++++++++++++to 0.00069924
Heightened Def Con from 0.000699242 +++++++++++++++++++++++++to 0.000699246
Heightened Def Con from 0.000699248 +++++++++++++++++++++to 0.000699248
Heightened Def Con from 0.000699248 +++++++++++++++++++++++++to 0.000699252
Heightened Def Con from 0.000699253 +++++++++++++++++++++++++to 0.000699257
Heightened Def Con from 0.000699259 ++++++++++++++++++++++++to 0.000699259
Heightened Def Con from 0.000699259 +++++++++++++++++++++++++to 0.000699263
Heightened Def Con from 0.000699264 ++++++++++++++++++++++++to 0.000699264
Heightened Def Con from 0.000699264 +++++++++++++++++++++++++to 0.000699268
Heightened Def Con from 0.00069927 +++++++++++++++++++++++++to 0.000699274
Heightened Def Con from 0.000699275 +++++++++++++++++++++++to 0.000699275
Heightened Def Con from 0.000699275 +++++++++++++++++++++++++to 0.000699279
Heightened Def Con from 0.000699281 ++++++++++++++++++++++++to 0.000699281
Heightened Def Con from 0.000699281 +++++++++++++++++++++++++to 0.000699285
Heightened Def Con from 0.000699286 +++++++++++++++++++++++++to 0.00069929
Heightened Def Con from 0.000699292 +++++++++++++++++++++++++to 0.000699293
Heightened Def Con from 0.000699293 +++++++++++++++++++++++++to 0.000699297
Heightened Def Con from 0.000699298 +++++++++++++++++++++++++to 0.000699299
Heightened Def Con from 0.000699299 +++++++++++++++++++++++++to 0.000699303
Heightened Def Con from 0.000699305 ++++++++++++++++++++++++to 0.000699305
Heightened Def Con from 0.000699305 +++++++++++++++++++++++++to 0.000699309
Heightened Def Con from 0.00069931 +++++++++++++++++++++++++to 0.000699314
Heightened Def Con from 0.000699316 +++++++++++++++++++++++++to 0.00069932
Heightened Def Con from 0.000699321 +++++++++++++++++++++++++to 0.000699325
Heightened Def Con from 0.000699327 ++++++++++++++++++++++++to 0.000699327
Heightened Def Con from 0.000699327 +++++++++++++++++++++++++to 0.000699331
Heightened Def Con from 0.000699332 ++++++++++++++++++++++++to 0.000699332
Heightened Def Con from 0.000699332 +++++++++++++++++++++++++to 0.000699336
Heightened Def Con from 0.000699338 +++++++++++++++++++++++++to 0.000699342
Heightened Def Con from 0.000699344 +++++++++++++++++++++++++to 0.000699348
Heightened Def Con from 0.000699349 ++++++++++++++++++++++++to 0.000699349
Heightened Def Con from 0.000699349 +++++++++++++++++++++++++to 0.000699353
Heightened Def Con from 0.000699355 +++++++++++++++++++++++to 0.000699355
Heightened Def Con from 0.000699355 +++++++++++++++++++++++++to 0.000699359
Heightened Def Con from 0.00069936 +++++++++++++++++++++++++to 0.000699364
Heightened Def Con from 0.000699366 +++++++++++++++++++++++++to 0.00069937
Heightened Def Con from 0.000699371 ++++++++++++++++++++++++to 0.000699373
Heightened Def Con from 0.00078594 ++++++++++++++++++++++to 0.00078594
Heightened Def Con from 0.000785941 +++++++++++++++++++++to 0.000785944
Heightened Def Con from 0.000785946 ++++++++++++++++++++to 0.000785946
Heightened Def Con from 0.000785946 +++++++++++++++++++++to 0.000785949
Heightened Def Con from 0.00078595 ++++++++++++++++++++++to 0.000785953
Heightened Def Con from 0.000785956 +++++++++++++++++++++++to 0.000785957
Heightened Def Con from 0.000785959 +++++++++++++++++++++++to 0.000785961
Heightened Def Con from 0.000785963 ++++++++++++++++++++++to 0.000785966
Heightened Def Con from 0.000785968 ++++++++++++++++++++++to 0.000785971
Heightened Def Con from 0.000785972 ++++++++++++++++++++++to 0.000785975
Heightened Def Con from 0.000785977 +++++++++++++++++++++++to 0.000785978
Heightened Def Con from 0.000785979 ++++++++++++++++++++++to 0.000785982
Heightened Def Con from 0.000785983 +++++++++++++++++++++++to 0.000785984
Heightened Def Con from 0.000785985 +++++++++++++++++++++++to 0.000785985
Heightened Def Con from 0.000785985 ++++++++++++++++++++++to 0.000785988
Heightened Def Con from 0.000785989 +++++++++++++++++++++++to 0.00078599
Heightened Def Con from 0.000785991 +++++++++++++++++++++++to 0.000785992
Heightened Def Con from 0.000785993 +++++++++++++++++++++++to 0.000785995
Heightened Def Con from 0.000785996 +++++++++++++++++++++++to 0.000785997
Heightened Def Con from 0.000785998 +++++++++++++++++++++++to 0.000785999
Heightened Def Con from 0.000786 +++++++++++++++++++++++to 0.000786001
Heightened Def Con from 0.000786002 ++++++++++++++++++++++to 0.000786002
Heightened Def Con from 0.000786002 +++++++++++++++++++++++to 0.000786003
Heightened Def Con from 0.000786004 +++++++++++++++++++++++to 0.000786004
Heightened Def Con from 0.0011576 +++++++++++++++++++++to 0.0011576
Heightened Def Con from 0.0011576 +++++++++++++++++++++to 0.00115761
Heightened Def Con from 0.00115761 +++++++++++++++++++++to 0.00115761
Heightened Def Con from 0.00115761 ++++++++++++++++++++++to 0.00115761
Heightened Def Con from 0.00115762 +++++++++++++++++++++++to 0.00115762
Heightened Def Con from 0.00115762 ++++++++++++++++++++++to 0.00115763
Heightened Def Con from 0.00115763 ++++++++++++++++++++++to 0.00115763
Heightened Def Con from 0.00115763 ++++++++++++++++++++++to 0.00115763
Heightened Def Con from 0.00115764 to 0.00115764
Heightened Def Con from 0.00115764 +++++++++++++++++++++++to 0.00115764
Heightened Def Con from 0.00115764 ++++++++++++++++++++++to 0.00115764
Heightened Def Con from 0.00115764 +++++++++++++++++++++++to 0.00115764
Heightened Def Con from 0.00115765 +++++++++++++++++++++++to 0.00115765
Heightened Def Con from 0.00115765 ++++++++++++++++++++++++to 0.00115765
Heightened Def Con from 0.00115766 +++++++++++++++++++++++to 0.00115766
Heightened Def Con from 0.00115766 +++++++++++++++++++to 0.00115766
Heightened Def Con from 0.00115766 +++++++++++++++++++++++to 0.00115767
Heightened Def Con from 0.00115767 +++++++++++++++++++++++to 0.00115767
Heightened Def Con from 0.00115767 +++++++++++++++++++++++to 0.00115768
Heightened Def Con from 0.00115768 +++++++++++++++++++++++to 0.00115768
Heightened Def Con from 0.00115768 ++++++++++++++++++++++to 0.00115768
Heightened Def Con from 0.00115768 +++++++++++++++++++++++to 0.00115768
Heightened Def Con from 0.00115768 +++++++++++++++++++++++to 0.00115769
Heightened Def Con from 0.00115769 +++++++++++++++++++++++to 0.00115769
Heightened Def Con from 0.00115769 ++++++++++++++++++++++++to 0.00115769
Heightened Def Con from 0.0011577 ++++++++++++++++++++++++to 0.0011577
Heightened Def Con from 0.00115771 ++++++++++++++++++++++++to 0.00115771
Heightened Def Con from 0.00115771 ++++++++++++++++++++++++to 0.00115772
Heightened Def Con from 0.00115772 ++++++++++++++++++++++++to 0.00115772
Heightened Def Con from 0.00115773 ++++++++++++++++++++++++to 0.00115773
Heightened Def Con from 0.00115773 to 0.00115773
Heightened Def Con from 0.00115773 ++++++++++++++++++++++++to 0.00115774
Heightened Def Con from 0.00115774 ++++++++++++++++++++++++to 0.00115774
Heightened Def Con from 0.00115774 +++++++++++++++++++++++++to 0.00115774
Heightened Def Con from 0.00115775 ++++++++++++++++++++++++to 0.00115775
Heightened Def Con from 0.00115775 ++++++++++++++++++++++++to 0.00115775
Heightened Def Con from 0.00115776 ++++++++++++++++++++++++to 0.00115776
Heightened Def Con from 0.00115776 ++++++++++++++++++++++++to 0.00115777
Heightened Def Con from 0.00115777 ++++++++++++++++++++++++to 0.00115777
Heightened Def Con from 0.00115777 ++++++++++++++++++++++++to 0.00115777
Heightened Def Con from 0.00115777 ++++++++++++++++++++++++to 0.00115778
Heightened Def Con from 0.00115778 ++++++++++++++++++++++++to 0.00115778
Heightened Def Con from 0.00115778 ++++++++++++++++++++++++to 0.00115779
Heightened Def Con from 0.00115779 ++++++++++++++++++++++++to 0.00115779
Heightened Def Con from 0.00115779 +++++++++++++++++++++++++to 0.00115779
Heightened Def Con from 0.0011578 ++++++++++++++++++++++++to 0.0011578
Heightened Def Con from 0.0011578 +++++++++++++++++++++++++to 0.0011578
Heightened Def Con from 0.0011578 +++++++++++++++++++++++++to 0.0011578
Heightened Def Con from 0.00115781 ++++++++++++++++++++++++to 0.00115781
Heightened Def Con from 0.00115781 +++++++++++++++++++++++++to 0.00115781
Heightened Def Con from 0.00115781 +++++++++++++++++++++++to 0.00115781
Heightened Def Con from 0.00115781 +++++++++++++++++++++++++to 0.00115782
Heightened Def Con from 0.00115782 to 0.00115782
[...]
Heightened Def Con from 0.00628061 ++++++++++++++++++++++to 0.00628062
Heightened Def Con from 0.00628062 to 0.00628062
Heightened Def Con from 0.00628062 ++++++++++++++++++++++to 0.00628062
Heightened Def Con from 0.00628062 ++++++++++++++++++++++to 0.00628063
Heightened Def Con from 0.00628063 ++++++++++++++++++++++to 0.00628063
Heightened Def Con from 0.00628063 ++++++++++++++++++++++to 0.00628064
Heightened Def Con from 0.00628064 ++++++++++++++++++++++to 0.00628064
Heightened Def Con from 0.00628064 ++++++++++++++++++++++to 0.00628064
Heightened Def Con from 0.00628065 +++++++++++++++++++++++to 0.00628065
Heightened Def Con from 0.00628065 +++++++++++++++++++++++to 0.00628065
Heightened Def Con from 0.00628065 +++++++++++++++++++++++to 0.00628065
Heightened Def Con from 0.00628065 +++++++++++++++++++++++to 0.00628065
Heightened Def Con from 0.00628066 +++++++++++++++++++++++to 0.00628066
Heightened Def Con from 0.00628066 ++++++++++++++++++++++++to 0.00628066
Heightened Def Con from 0.00628066 +++++++++++++++++++++++to 0.00628066
Heightened Def Con from 0.00628066 +++++++++++++++++++++++to 0.00628066
Heightened Def Con from 0.00628066 +++++++++++++++++++++++to 0.00628066
Heightened Def Con from 0.00628066 ++++++++++++++++++++++to 0.00628066
Heightened Def Con from 0.00628066 +++++++++++++++++++++++to 0.00628067
Heightened Def Con from 0.00628067 ++++++++++++++++++++to 0.00628067
Heightened Def Con from 0.00628067 +++++++++++++++++++++++to 0.00628067
Heightened Def Con from 0.00628067 +++++++++++++++++++++++to 0.00628067
Heightened Def Con from 0.00628067 ++++++++++++++++++++++to 0.00628067
Heightened Def Con from 0.00628067 +++++++++++++++++++++++to 0.00628067
Heightened Def Con from 0.00628067 +++++++++++++++++++++++to 0.00628067
Heightened Def Con from 0.00628067 to 0.00628067
Heightened Def Con from 0.00628067 +++++++++++++++++++++++to 0.00628067
Heightened Def Con from 0.00665081 +++++++++++++++++++++to 0.00665082
Heightened Def Con from 0.00665082 ++++++++++++++++++++++to 0.00665082
Heightened Def Con from 0.00665082 ++++++++++++++++++++to 0.00665082
Heightened Def Con from 0.00665082 ++++++++++++++++++++++to 0.00665083
Heightened Def Con from 0.00665083 to 0.00665083
Heightened Def Con from 0.00665083 ++++++++++++++++++++++to 0.00665083
Heightened Def Con from 0.00665083 ++++++++++++++++++++++to 0.00665084
Heightened Def Con from 0.00665084 to 0.00665084
Heightened Def Con from 0.00665084 ++++++++++++++++++++++to 0.00665084
Heightened Def Con from 0.00665084 ++++++++++++++++++++++to 0.00665085
Heightened Def Con from 0.00665085 ++++++++++++++++++++++to 0.00665085
Heightened Def Con from 0.00665085 ++++++++++++++++++++++to 0.00665085
Heightened Def Con from 0.00665085 +++++++++++++++++++++++to 0.00665086
Heightened Def Con from 0.00665086 +++++++++++++++++++++++to 0.00665086
Heightened Def Con from 0.00665086 +++++++++++++++++++++++to 0.00665087
Heightened Def Con from 0.00665087 ++++++++++++++++++++++++to 0.00665087
Heightened Def Con from 0.00665088 +++++++++++++++++++++++to 0.00665088
Heightened Def Con from 0.00665088 +++++++++++++++++++++++to 0.00665089
Heightened Def Con from 0.00665089 +++++++++++++++++++++++to 0.00665089
Heightened Def Con from 0.00665089 +++++++++++++++++++++++to 0.00665089
Heightened Def Con from 0.00665089 +++++++++++++++++++++++to 0.0066509
Heightened Def Con from 0.0066509 +++++++++++++++++++++++to 0.0066509
Heightened Def Con from 0.0066509 +++++++++++++++++++++++to 0.0066509
Heightened Def Con from 0.0066509 ++++++++++++++++++++++++to 0.00665091
Heightened Def Con from 0.00665091 ++++++++++++++++++++++++to 0.00665092
Heightened Def Con from 0.00665092 ++++++++++++++++++++++++to 0.00665092
Heightened Def Con from 0.00665093 ++++++++++++++++++++++++to 0.00665093
Heightened Def Con from 0.00665093 ++++++++++++++++++++++++to 0.00665093
Heightened Def Con from 0.00665093 ++++++++++++++++++++++++to 0.00665094
Heightened Def Con from 0.00665094 ++++++++++++++++++++++++to 0.00665095
Heightened Def Con from 0.00665095 ++++++++++++++++++++++to 0.00665095
Heightened Def Con from 0.00665095 ++++++++++++++++++++++++to 0.00665095
Heightened Def Con from 0.00665095 ++++++++++++++++++++++++to 0.00665096
Heightened Def Con from 0.00665096 ++++++++++++++++++++++++to 0.00665096
Heightened Def Con from 0.00665096 ++++++++++++++++++++++++to 0.00665097
Heightened Def Con from 0.00665097 +++++++++++++++++++++++++to 0.00665097
Heightened Def Con from 0.00665097 ++++++++++++++++++++++++to 0.00665098
Heightened Def Con from 0.00665098 ++++++++++++++++++++++++to 0.00665098
Heightened Def Con from 0.00665098 +++++++++++++++++++++++++to 0.00665098
Heightened Def Con from 0.00665098 ++++++++++++++++++++++++to 0.00665099
Heightened Def Con from 0.00665099 ++++++++++++++++++++++++to 0.00665099
Heightened Def Con from 0.00665099 ++++++++++++++++++++++++to 0.006651
Heightened Def Con from 0.006651 ++++++++++++++++++++++++to 0.006651
Heightened Def Con from 0.006651 +++++++++++++++++++++++++to 0.006651
Heightened Def Con from 0.00665101 +++++++++++++++++++++++++to 0.00665101
Heightened Def Con from 0.00665102 ++++++++++++++++++++++++to 0.00665102
Heightened Def Con from 0.00665102 +++++++++++++++++++++++++to 0.00665102
Heightened Def Con from 0.00665102 +++++++++++++++++++++++++to 0.00665102
Heightened Def Con from 0.00665103 +++++++++++++++++++++++++to 0.00665103
Heightened Def Con from 0.00665103 +++++++++++++++++++++++++to 0.00665104
Heightened Def Con from 0.00665104 +++++++++++++++++++++++++to 0.00665104
Heightened Def Con from 0.00665105 +++++++++++++++++++++++++to 0.00665105
Heightened Def Con from 0.00665105 to 0.00665105
Heightened Def Con from 0.00665105 +++++++++++++++++++++++++to 0.00665105
Heightened Def Con from 0.00665106 +++++++++++++++++++++++++to 0.00665106
Heightened Def Con from 0.00665106 to 0.00665106
Heightened Def Con from 0.00665106 +++++++++++++++++++++++++to 0.00665107
Heightened Def Con from 0.00665107 +++++++++++++++++++++++++to 0.00665107
Heightened Def Con from 0.00665107 +++++++++++++++++++++++++to 0.00665107
Heightened Def Con from 0.00665108 +++++++++++++++++++++++++to 0.00665108
Heightened Def Con from 0.00665108 +++++++++++++++++++++++++to 0.00665109
Heightened Def Con from 0.00665109 +++++++++++++++++++++++++to 0.00665109
Heightened Def Con from 0.0066511 to 0.0066511
Heightened Def Con from 0.0066511 +++++++++++++++++++++++++to 0.0066511
Heightened Def Con from 0.0066511 +++++++++++++++++++++++++to 0.00665111
Heightened Def Con from 0.00665111 +++++++++++++++++++++++++to 0.00665111
Heightened Def Con from 0.00665112 +++++++++++++++++++++++++to 0.00665112
Heightened Def Con from 0.00665112 +++++++++++++++++++++++++to 0.00665113
Heightened Def Con from 0.00665113 +++++++++++++++++++++++++to 0.00665113
Heightened Def Con from 0.00665113 ++++++++++++++++++++++++to 0.00665113
Heightened Def Con from 0.00665113 +++++++++++++++++++++++++to 0.00665114
Heightened Def Con from 0.00665114 to 0.00665114
Heightened Def Con from 0.00665114 +++++++++++++++++++++++++to 0.00665114
Heightened Def Con from 0.00665115 +++++++++++++++++++++++++to 0.00665115
Heightened Def Con from 0.00665115 +++++++++++++++++++++++++to 0.00665116
Heightened Def Con from 0.00665116 ++++++++++++++++++++++++to 0.00665116
Heightened Def Con from 0.00665116 +++++++++++++++++++++++++to 0.00665116
Heightened Def Con from 0.00665117 +++++++++++++++++++++++++to 0.00665117
Heightened Def Con from 0.00665117 +++++++++++++++++++++to 0.00665117
Heightened Def Con from 0.00665117 +++++++++++++++++++++++++to 0.00665117
Heightened Def Con from 0.00665117 +++++++++++++++++++++++++to 0.00665118
Heightened Def Con from 0.00665118 +++++++++++++++++++++++++to 0.00665118
Heightened Def Con from 0.00665118 +++++++++++++++++++++++++to 0.00665119
Heightened Def Con from 0.00665119 +++++++++++++++++++++++++to 0.00665119
Heightened Def Con from 0.0066512 +++++++++++++++++++++++++to 0.0066512
Heightened Def Con from 0.0066512 +++++++++++++++++++++++++to 0.00665121
Heightened Def Con from 0.00665121 to 0.00665121
Heightened Def Con from 0.00665121 +++++++++++++++++++++++++to 0.00665121
Heightened Def Con from 0.00665121 +++++++++++++++++++++++++to 0.00665122
Heightened Def Con from 0.00665122 +++++++++++++++++++++++++to 0.00665122
Heightened Def Con from 0.00665122 +++++++++++++++++++++++++to 0.00665123
Heightened Def Con from 0.00665123 +++++++++++++++++++++++++to 0.00665123
Heightened Def Con from 0.00665124 +++++++++++++++++++++++to 0.00665124
Heightened Def Con from 0.00665124 +++++++++++++++++++++++++to 0.00665124
Heightened Def Con from 0.00665124 +++++++++++++++++++++++++to 0.00665125
Heightened Def Con from 0.00665125 +++++++++++++++++++++++++to 0.00665125
Heightened Def Con from 0.00665125 +++++++++++++++++++++++to 0.00665125
Heightened Def Con from 0.00665125 +++++++++++++++++++++++++to 0.00665125
Heightened Def Con from 0.00665125 +++++++++++++++++++++++++to 0.00665126
Heightened Def Con from 0.00665126 +++++++++++++++++++++++++to 0.00665126
Heightened Def Con from 0.00665127 +++++++++++++++++++++++++to 0.00665127
Heightened Def Con from 0.00665127 +++++++++++++++++++++++++to 0.00665128
Heightened Def Con from 0.00665128 ++++++++++++++++++++++++to 0.00665128
Heightened Def Con from 0.00665128 +++++++++++++++++++++++++to 0.00665128
Heightened Def Con from 0.00665128 +++++++++++++++++++++++++to 0.00665129
Heightened Def Con from 0.00665129 +++++++++++++++++++++++++to 0.00665129
Heightened Def Con from 0.00665129 +++++++++++++++++++++++++to 0.00665129
Heightened Def Con from 0.00665129 to 0.00665129
Heightened Def Con from 0.00665129 ++++++++++++++++++++++++to 0.00665129
Heightened Def Con from 0.00665129 +++++++++++++++++++++++++to 0.0066513
Heightened Def Con from 0.0066513 +++++++++++++++++++++++++to 0.0066513
Heightened Def Con from 0.00665131 +++++++++++++++++++++++++to 0.00665131
Heightened Def Con from 0.00665131 +++++++++++++++++++++++++to 0.00665132
Heightened Def Con from 0.00665132 ++++++++++++++++++++++to 0.00665132
Heightened Def Con from 0.00665132 +++++++++++++++++++++++++to 0.00665132
Heightened Def Con from 0.00665132 +++++++++++++++++++++++++to 0.00665133
Heightened Def Con from 0.00665133 to 0.00665133
Heightened Def Con from 0.00665133 +++++++++++++++++++++++++to 0.00665133
Heightened Def Con from 0.00665133 +++++++++++++++++++++++++to 0.00665133
Heightened Def Con from 0.00665133 +++++++++++++++++++++++++to 0.00665134
Heightened Def Con from 0.00665134 +++++++++++++++++++++++++to 0.00665134
Heightened Def Con from 0.00665135 +++++++++++++++++++++++++to 0.00665135
Heightened Def Con from 0.00665135 ++++++++++++++++++++++++to 0.00665135
Heightened Def Con from 0.00665135 +++++++++++++++++++++++++to 0.00665136
Heightened Def Con from 0.00665136 +++++++++++++++++++++++++to 0.00665136
Heightened Def Con from 0.00665136 +++++++++++++++++++++++++to 0.00665137
Heightened Def Con from 0.00665137 ++++++++++++++++++++++++to 0.00665137
Heightened Def Con from 0.00665137 +++++++++++++++++++++++++to 0.00665137
Heightened Def Con from 0.00665137 +++++++++++++++++++++++++to 0.00665138
Heightened Def Con from 0.00665138 +++++++++++++++++++++++++to 0.00665138
Heightened Def Con from 0.00665139 +++++++++++++++++++++++++to 0.00665139
Heightened Def Con from 0.00665139 +++++++++++++++++++++++++to 0.00665139
Heightened Def Con from 0.00665139 +++++++++++++++++++++++++to 0.00665139
Heightened Def Con from 0.00665139 to 0.00665139
Heightened Def Con from 0.00665139 +++++++++++++++++++++++++to 0.0066514
Heightened Def Con from 0.0066514 +++++++++++++++++++++++++to 0.0066514
Heightened Def Con from 0.0066514 +++++++++++++++++++++++++to 0.00665141
Heightened Def Con from 0.00665141 +++++++++++++++++++++++++to 0.00665141
Heightened Def Con from 0.00665141 ++++++++++++++++++++++++to 0.00665141
Heightened Def Con from 0.00665141 +++++++++++++++++++++++++to 0.00665142
Heightened Def Con from 0.00665142 +++++++++++++++++++++++++to 0.00665142
Heightened Def Con from 0.00665142 +++++++++++++++++++++++++to 0.00665142
Heightened Def Con from 0.00665143 +++++++++++++++++++++++++to 0.00665143
Heightened Def Con from 0.00665143 ++++++++++++++++++++++++to 0.00665143
Heightened Def Con from 0.00665143 +++++++++++++++++++++++++to 0.00665143
Heightened Def Con from 0.00665143 +++++++++++++++++++++++to 0.00665143
Heightened Def Con from 0.00665143 +++++++++++++++++++++++++to 0.00665144
Heightened Def Con from 0.00665144 +++++++++++++++++++++++++to 0.00665144
Heightened Def Con from 0.00665144 +++++++++++++++++++++++++to 0.00665144
Heightened Def Con from 0.00665144 ++++++++++++++++++++++to 0.00665144
Heightened Def Con from 0.00665144 +++++++++++++++++++++++++to 0.00665145
Heightened Def Con from 0.00665145 +++++++++++++++++++++++++to 0.00665145
Heightened Def Con from 0.00665145 ++++++++++++++++++++++++to 0.00665145
Heightened Def Con from 0.00665145 +++++++++++++++++++++++++to 0.00665145
Heightened Def Con from 0.00665146 ++++++++++++++++++++++++to 0.00665146
Heightened Def Con from 0.00665146 +++++++++++++++++++++++++to 0.00665146
Heightened Def Con from 0.00665146 +++++++++++++++++++++++++to 0.00665147
Heightened Def Con from 0.00665147 +++++++++++++++++++++++++to 0.00665147
Heightened Def Con from 0.00665147 +++++++++++++++++++++++++to 0.00665148
Heightened Def Con from 0.00665148 ++++++++++++++++++++++++to 0.00665148
Heightened Def Con from 0.00665148 +++++++++++++++++++++++++to 0.00665148
Heightened Def Con from 0.00665148 +++++++++++++++++++++++++to 0.00665148
Heightened Def Con from 0.00665149 +++++++++++++++++++++++++to 0.00665149
Heightened Def Con from 0.00665149 +++++++++++++++++++++++++to 0.00665149
Heightened Def Con from 0.0066515 +++++++++++++++++++++++++to 0.0066515
Heightened Def Con from 0.0066515 +++++++++++++++++++++++++to 0.00665151
Heightened Def Con from 0.00665151 ++++++++++++++++++++++++to 0.00665151
Heightened Def Con from 0.00665151 +++++++++++++++++++++++++to 0.00665151
Heightened Def Con from 0.00665151 +++++++++++++++++++++++++to 0.00665152
Heightened Def Con from 0.00665152 +++++++++++++++++++++++to 0.00665152
Heightened Def Con from 0.00665152 +++++++++++++++++++++++++to 0.00665152
Heightened Def Con from 0.00665152 ++++++++++++++++++++++to 0.00665152
Heightened Def Con from 0.00665152 +++++++++++++++++++++++++to 0.00665153
Heightened Def Con from 0.00665153 +++++++++++++++++++++++++to 0.00665153
Heightened Def Con from 0.00665154 +++++++++++++++++++++++++to 0.00665154
Heightened Def Con from 0.00665154 +++++++++++++++++++++++++to 0.00665154
Heightened Def Con from 0.00665155 +++++++++++++++++++++++++to 0.00665155
Heightened Def Con from 0.00665155 +++++++++++++++++++++++++to 0.00665156
Heightened Def Con from 0.00665156 +++++++++++++++++++++++++to 0.00665156
Heightened Def Con from 0.00665156 +++++++++++++++++++++++++to 0.00665157
Heightened Def Con from 0.00665157 ++++++++++++++++++++++++to 0.00665157
Heightened Def Con from 0.00665157 +++++++++++++++++++++++++to 0.00665157
Heightened Def Con from 0.00665157 to 0.00665157
Heightened Def Con from 0.00665157 +++++++++++++++++++++++++to 0.00665158
Heightened Def Con from 0.00665158 +++++++++++++++++++++++to 0.00665158
Heightened Def Con from 0.00665158 +++++++++++++++++++++++++to 0.00665158
Heightened Def Con from 0.00665159 +++++++++++++++++++++++++to 0.00665159
Heightened Def Con from 0.00665159 ++++++++++++++++++++++++to 0.00665159
Heightened Def Con from 0.00665159 +++++++++++++++++++++++++to 0.0066516
Heightened Def Con from 0.0066516 +++++++++++++++++++++++++to 0.0066516
Heightened Def Con from 0.0066516 +++++++++++++++++++++++++to 0.00665161
Heightened Def Con from 0.00665161 +++++++++++++++++++++++++to 0.00665161
Heightened Def Con from 0.00665161 +++++++++++++++++++++++++to 0.00665162
Heightened Def Con from 0.00665162 +++++++++++++++++++++++++to 0.00665162
Heightened Def Con from 0.00665162 +++++++++++++++++++++++++to 0.00665162
Heightened Def Con from 0.00665163 +++++++++++++++++++++++++to 0.00665163
Heightened Def Con from 0.00665163 +++++++++++++++++++++++++to 0.00665163
Heightened Def Con from 0.00665164 +++++++++++++++++++++++++to 0.00665164
Heightened Def Con from 0.00665164 +++++++++++++++++++++++++to 0.00665165
Heightened Def Con from 0.00665165 +++++++++++++++++++++++++to 0.00665165
Heightened Def Con from 0.00665165 +++++++++++++++++++++++++to 0.00665165
Heightened Def Con from 0.00665165 ++++++++++++++++++++++++to 0.00665165
Heightened Def Con from 0.00665165 +++++++++++++++++++++++++to 0.00665166
Heightened Def Con from 0.00665166 to 0.00665166
Heightened Def Con from 0.00665166 +++++++++++++++++++++++++to 0.00665166
Heightened Def Con from 0.00665166 +++++++++++++++++++++++++to 0.00665167
Heightened Def Con from 0.00665167 +++++++++++++++++++++++++to 0.00665167
Heightened Def Con from 0.00665168 +++++++++++++++++++++++++to 0.00665168
Heightened Def Con from 0.00665168 +++++++++++++++++++++++to 0.00665168
Heightened Def Con from 0.00665168 +++++++++++++++++++++++++to 0.00665168
Heightened Def Con from 0.00665168 +++++++++++++++++++++++++to 0.00665169
Heightened Def Con from 0.00665169 +++++++++++++++++++++++++to 0.00665169
Heightened Def Con from 0.00665169 +++++++++++++++++++++++++to 0.0066517
Heightened Def Con from 0.0066517 ++++++++++++++++++++++++to 0.0066517
Heightened Def Con from 0.0066517 +++++++++++++++++++++++++to 0.0066517
Heightened Def Con from 0.0066517 to 0.0066517
Heightened Def Con from 0.0066517 +++++++++++++++++++++++++to 0.0066517
Heightened Def Con from 0.00665171 ++++++++++++++++++++++++to 0.00665171
Heightened Def Con from 0.00665171 +++++++++++++++++++++++++to 0.00665171
Heightened Def Con from 0.00665171 +++++++++++++++++++++++++to 0.00665171
Heightened Def Con from 0.00665172 ++++++++++++++++++++++++to 0.00665172
Heightened Def Con from 0.00665172 +++++++++++++++++++++++++to 0.00665172
Heightened Def Con from 0.00665172 +++++++++++++++++++++++++to 0.00665172
Heightened Def Con from 0.00665172 +++++++++++++++++++++++++to 0.00665173
Heightened Def Con from 0.00665173 +++++++++++++++++++++++++to 0.00665173
Heightened Def Con from 0.00665173 ++++++++++++++++++++++++to 0.00665173
Heightened Def Con from 0.00665173 +++++++++++++++++++++++++to 0.00665174
Heightened Def Con from 0.00665174 to 0.00665174
Heightened Def Con from 0.00665174 ++++++++++++++++++++++++to 0.00665174
Heightened Def Con from 0.00665174 +++++++++++++++++++++++++to 0.00665174
Heightened Def Con from 0.00665174 +++++++++++++++++++++++++to 0.00665175
Heightened Def Con from 0.00665175 ++++++++++++++++++++++++to 0.00665175
Heightened Def Con from 0.00665175 +++++++++++++++++++++++++to 0.00665175
Heightened Def Con from 0.00665175 +++++++++++++++++++++++++to 0.00665176
Heightened Def Con from 0.00665176 +++++++++++++++++++++++++to 0.00665176
Heightened Def Con from 0.00665176 +++++++++++++++++++++++++to 0.00665177
Heightened Def Con from 0.00665177 ++++++++++++++++++++++++to 0.00665177
Heightened Def Con from 0.00665177 +++++++++++++++++++++++++to 0.00665177
Heightened Def Con from 0.00665177 +++++++++++++++++++++++++to 0.00665178
Heightened Def Con from 0.00665178 to 0.00665178
Heightened Def Con from 0.00665178 +++++++++++++++++++++++++to 0.00665178
Heightened Def Con from 0.00665178 +++++++++++++++++++++++++to 0.00665179
Heightened Def Con from 0.00665179 ++++++++++++++++++++++++to 0.00665179
Heightened Def Con from 0.00665179 +++++++++++++++++++++++++to 0.00665179
Heightened Def Con from 0.0066518 ++++++++++++++++++++++++to 0.0066518
Heightened Def Con from 0.0066518 +++++++++++++++++++++++++to 0.0066518
Heightened Def Con from 0.0066518 +++++++++++++++++++++++++to 0.00665181
Heightened Def Con from 0.00665181 +++++++++++++++++++++++++to 0.00665181
Heightened Def Con from 0.00665181 +++++++++++++++++++++++++to 0.00665182
Heightened Def Con from 0.00665182 +++++++++++++++++++++++++to 0.00665182
Heightened Def Con from 0.00665182 +++++++++++++++++++++++++to 0.00665183
Heightened Def Con from 0.00665183 