Circuit: * C:\Users\Daniel\Desktop\SIUE-master\SIUE-master\SUE_max_4V_out.asc

Warning: Multiple definitions of model "2scr375p" Type: BJT
Warning: Multiple definitions of model "bc857b" Type: BJT
Warning: Multiple definitions of model "bc847c" Type: BJT
Warning: Multiple definitions of model "bc847b" Type: BJT
Unknown node in .ic card: "ncl" -- ignoring
Unknown node in .ic card: "nct" -- ignoring
Direct Newton iteration failed to find .op point.  (Use ".option noopiter" to skip.)
Starting Gmin stepping
Gmin = 10
Gmin = 1.07374
Gmin = 0.115292
Gmin = 0.0123794
Gmin = 0.00132923
Gmin = 0.000142725
Gmin = 1.5325e-05
Gmin = 1.6455e-06
Gmin = 1.76685e-07
Gmin = 1.89714e-08
vernier = 0.5
Gmin = 3.18287e-09
vernier = 0.25
vernier = 0.125
vernier = 0.0625
vernier = 0.03125
Gmin = 2.66279e-09
vernier = 0.015625
vernier = 0.0078125
vernier = 0.00390625
vernier = 0.00195312
Gmin = 2.63957e-09
vernier = 0.000976562
Gmin = 2.63249e-09
vernier = 0.00130208
vernier = 0.000651042
vernier = 0.000488281
Gmin = 2.63025e-09
Gmin = 0
Gmin stepping failed

Starting source stepping with srcstepmethod=0
Source Step = 3.0303%
Source Step = 33.3333%
Source Step = 63.6364%
Source Step = 93.9394%
Source stepping succeeded in finding the operating point.

Ignoring empty pin current: Ix(u1:1)
Ignoring empty pin current: Ix(u1:2)
Ignoring empty pin current: Ix(u2:1)
Ignoring empty pin current: Ix(u2:2)
Ignoring empty pin current: Ix(u3:1)
Ignoring empty pin current: Ix(u3:2)
Ignoring empty pin current: Ix(u5:1)
Ignoring empty pin current: Ix(u5:2)
Ignoring empty pin current: Ix(u6:1)
Ignoring empty pin current: Ix(u6:2)
Ignoring empty pin current: Ix(u7:1)
Ignoring empty pin current: Ix(u7:2)
Ignoring empty pin current: Ix(u8:1)
Ignoring empty pin current: Ix(u8:2)
Ignoring empty pin current: Ix(u9:1)
Ignoring empty pin current: Ix(u9:2)
Ignoring empty pin current: Ix(u1:1)
Ignoring empty pin current: Ix(u1:2)
Ignoring empty pin current: Ix(u2:1)
Ignoring empty pin current: Ix(u2:2)
Ignoring empty pin current: Ix(u3:1)
Ignoring empty pin current: Ix(u3:2)
Ignoring empty pin current: Ix(u5:1)
Ignoring empty pin current: Ix(u5:2)
Ignoring empty pin current: Ix(u6:1)
Ignoring empty pin current: Ix(u6:2)
Ignoring empty pin current: Ix(u7:1)
Ignoring empty pin current: Ix(u7:2)
Ignoring empty pin current: Ix(u8:1)
Ignoring empty pin current: Ix(u8:2)
Ignoring empty pin current: Ix(u9:1)
Ignoring empty pin current: Ix(u9:2)
.step ux=0
.step ux=0.5
